
*** ChampSim Multicore Out-of-Order Simulator ***

Warmup Instructions: 30000000
Simulation Instructions: 30000000
Number of CPUs: 1
LLC sets: 32
LLC ways: 32
Off-chip DRAM Size: 4096 MB Channels: 1 Width: 64-bit Data Rate: 3200 MT/s

CPU 0 runs ./traces/cadical-med-30K-137B.champsimtrace.xz
[84357, 12739, 21057, 31869, 34688, 35485, 23720, 7890, 2801, 1103, 233, 49, 9]
[162582, 19718, 40705, 57823, 71776, 74307, 54828, 19612, 5750, 2985, 1479, 304, 131]
[241173, 25110, 61128, 85066, 109896, 116135, 85880, 28217, 7797, 4135, 2430, 728, 305]
[319417, 31942, 79624, 112050, 147927, 156020, 116854, 40320, 9649, 5247, 3433, 1038, 479]
[396137, 39270, 96660, 139353, 186208, 196747, 149228, 51745, 11597, 6515, 4579, 1326, 635]
[473348, 45982, 112694, 165628, 225869, 236435, 182202, 63534, 13508, 8189, 6118, 1668, 825]
[550745, 53932, 127338, 190302, 262295, 280315, 215822, 76094, 15393, 9733, 6966, 2043, 1022]
[626737, 61801, 142680, 215559, 300994, 326568, 249018, 84102, 18078, 10989, 7863, 2341, 1270]
[705546, 68037, 157722, 240401, 339140, 376781, 279319, 90458, 21576, 12103, 8778, 2672, 1467]
Heartbeat CPU 0 instructions: 10000002 cycles: 3052654 heartbeat IPC: 3.27584 cumulative IPC: 3.27584 (Simulation time: 0 hr 2 min 52 sec) 
[785086, 75202, 171436, 266044, 380443, 420886, 313533, 95882, 23885, 13313, 9635, 3006, 1649]
[860210, 82477, 185285, 291422, 423324, 466912, 347316, 101086, 27232, 15000, 10581, 3298, 1857]
[936567, 90282, 198339, 317220, 459268, 513330, 385155, 108006, 30482, 16230, 11432, 3620, 2069]
[1008246, 97432, 211625, 342993, 496609, 556166, 428416, 115185, 35180, 17526, 12364, 3963, 2295]
[1078643, 104900, 225067, 367424, 533971, 598240, 472893, 124264, 39289, 18912, 13397, 4375, 2625]
[1153268, 112213, 238154, 392286, 577180, 640874, 508804, 133444, 41515, 20150, 14471, 4767, 2874]
[1228781, 119914, 250888, 416582, 620035, 683404, 544069, 142973, 43734, 21379, 15960, 5161, 3120]
[1306405, 126966, 263626, 441650, 663696, 728613, 577523, 148534, 46922, 22440, 16766, 5493, 3366]
[1381026, 135001, 276672, 470176, 707784, 774218, 609642, 153526, 49510, 23510, 17572, 5822, 3541]
Heartbeat CPU 0 instructions: 20000001 cycles: 6121660 heartbeat IPC: 3.25838 cumulative IPC: 3.26709 (Simulation time: 0 hr 5 min 33 sec) 
[1458238, 142818, 289147, 499017, 747915, 819644, 641178, 160536, 52471, 24717, 18404, 6144, 3771]
[1538284, 149330, 301930, 527302, 786966, 862110, 673573, 168840, 56079, 25817, 19348, 6437, 3984]
[1616133, 156476, 313137, 555282, 827153, 905603, 706799, 178501, 58481, 27021, 20550, 6701, 4163]
[1689407, 163918, 324987, 583098, 869279, 950160, 739628, 188311, 61202, 28851, 21626, 7076, 4457]
[1764506, 171375, 336870, 609533, 911904, 995390, 771504, 197456, 63773, 30699, 22907, 7410, 4673]
[1839227, 178177, 348107, 635350, 954775, 1041842, 803786, 206358, 66496, 33082, 24237, 7670, 4893]
[1916400, 184114, 360051, 661148, 997003, 1087118, 838374, 213617, 69886, 34201, 25049, 7916, 5123]
[1995700, 189961, 372223, 694154, 1033300, 1128787, 873607, 221988, 71726, 35256, 25799, 8176, 5323]
[2075949, 195824, 384283, 728330, 1066583, 1171155, 910060, 229535, 73372, 36328, 26583, 8449, 5549]
Heartbeat CPU 0 instructions: 30000001 cycles: 9176271 heartbeat IPC: 3.27374 cumulative IPC: 3.2693 (Simulation time: 0 hr 8 min 7 sec) 

Warmup complete CPU 0 instructions: 30000001 cycles: 9176271 (Simulation time: 0 hr 8 min 7 sec) 

[2159437, 201698, 396087, 760676, 1099482, 1215381, 944561, 236508, 75156, 37394, 27274, 8677, 5669]
[2240007, 207678, 408345, 795647, 1132467, 1258111, 979041, 244073, 77334, 38507, 28030, 8921, 5839]
[2316542, 213426, 420080, 824260, 1176693, 1300455, 1011754, 253482, 79453, 39699, 28825, 9251, 6080]
[2393623, 219423, 431747, 853315, 1220175, 1343889, 1046058, 259848, 81337, 41014, 29701, 9596, 6274]
[2469610, 224976, 443605, 880414, 1263337, 1388187, 1079229, 269944, 83647, 42168, 30543, 9883, 6457]
[2549808, 230847, 455258, 907689, 1299380, 1435896, 1114344, 277585, 85785, 43277, 31290, 10177, 6664]
[2629511, 236391, 467024, 934945, 1342818, 1481455, 1145094, 285465, 87813, 44209, 32015, 10455, 6805]
[2707985, 242055, 478979, 962398, 1389356, 1522878, 1177977, 291303, 91234, 45205, 32917, 10689, 7024]
[2781941, 247343, 491646, 990356, 1431840, 1568842, 1210747, 300605, 93778, 46384, 34280, 10989, 7249]
Heartbeat CPU 0 instructions: 40000000 cycles: 23983098 heartbeat IPC: 0.675364 cumulative IPC: 0.675364 (Simulation time: 0 hr 10 min 41 sec) 
[2859411, 252715, 504124, 1017174, 1477427, 1613014, 1241521, 307951, 97295, 47505, 35075, 11310, 7478]
[2938118, 258287, 516655, 1044482, 1517735, 1653805, 1280401, 313954, 100492, 48654, 36009, 11674, 7734]
[3014071, 263547, 528709, 1072945, 1558564, 1698225, 1316095, 321988, 103211, 49927, 36800, 11996, 7922]
[3093809, 269346, 540294, 1099317, 1592718, 1744557, 1355062, 330951, 105105, 51013, 37482, 12274, 8072]
[3172296, 275227, 551646, 1126571, 1628035, 1788154, 1395231, 340787, 107028, 52139, 38141, 12520, 8225]
[3252573, 281293, 562617, 1153660, 1663256, 1835890, 1432119, 348129, 109428, 53188, 38675, 12769, 8403]
[3333026, 286773, 574609, 1180965, 1699102, 1885129, 1467284, 353782, 112127, 54206, 39372, 13016, 8609]
[3410054, 291529, 587273, 1208661, 1737408, 1931676, 1503424, 360650, 115450, 55526, 40194, 13297, 8858]
[3487221, 296280, 599585, 1233720, 1774400, 1978066, 1541858, 369345, 118697, 56853, 41368, 13559, 9048]
Heartbeat CPU 0 instructions: 50000000 cycles: 38756847 heartbeat IPC: 0.676876 cumulative IPC: 0.676119 (Simulation time: 0 hr 13 min 18 sec) 
[3561891, 301276, 612034, 1261317, 1812472, 2022669, 1581545, 377723, 121197, 58126, 42600, 13892, 9258]
[3636575, 306278, 624875, 1288661, 1849870, 2068545, 1618751, 386919, 124798, 59322, 43717, 14156, 9533]
[3713148, 311429, 638051, 1316374, 1887412, 2112714, 1655711, 395750, 127842, 60596, 44769, 14459, 9745]
[3791287, 316385, 651292, 1342241, 1923873, 2157897, 1693069, 404328, 131644, 61777, 45597, 14678, 9932]
[3865782, 321487, 663774, 1368505, 1962908, 2202548, 1732326, 413610, 133953, 63588, 46464, 14908, 10147]
[3944609, 326658, 676514, 1394044, 1997331, 2247587, 1773328, 421733, 136133, 65082, 47421, 15215, 10345]
[4020778, 331532, 689455, 1419101, 2034542, 2290022, 1817784, 429505, 138132, 66491, 48503, 15591, 10564]
[4098038, 336218, 702830, 1445436, 2074358, 2333532, 1856551, 436244, 140112, 68309, 49630, 15983, 10759]
[4176444, 341213, 715947, 1471528, 2115095, 2375489, 1894448, 444075, 142328, 69556, 50612, 16316, 10949]
Heartbeat CPU 0 instructions: 60000000 cycles: 53733129 heartbeat IPC: 0.667722 cumulative IPC: 0.673297 (Simulation time: 0 hr 15 min 30 sec) 
Finished CPU 0 instructions: 30000000 cycles: 44556868 cumulative IPC: 0.673297 (Simulation time: 0 hr 15 min 30 sec) 

ChampSim completed all CPUs

Region of Interest Statistics

CPU 0 cumulative IPC: 0.673297 instructions: 30000000 cycles: 44556868
L1D TOTAL     ACCESS:    5635335  HIT:    4954285  MISS:     681050
L1D LOAD      ACCESS:    3185765  HIT:    2512583  MISS:     673182
L1D RFO       ACCESS:    2449570  HIT:    2441702  MISS:       7868
L1D PREFETCH  ACCESS:          0  HIT:          0  MISS:          0
L1D WRITEBACK ACCESS:          0  HIT:          0  MISS:          0
L1D PREFETCH  REQUESTED:          0  ISSUED:          0  USEFUL:          0  USELESS:          0
L1D AVERAGE MISS LATENCY: 76.5638 cycles
L1I TOTAL     ACCESS:    5427346  HIT:    5427346  MISS:          0
L1I LOAD      ACCESS:    5427346  HIT:    5427346  MISS:          0
L1I RFO       ACCESS:          0  HIT:          0  MISS:          0
L1I PREFETCH  ACCESS:          0  HIT:          0  MISS:          0
L1I WRITEBACK ACCESS:          0  HIT:          0  MISS:          0
L1I PREFETCH  REQUESTED:          0  ISSUED:          0  USEFUL:          0  USELESS:          0
L1I AVERAGE MISS LATENCY: -nan cycles
L2C TOTAL     ACCESS:     915548  HIT:     662043  MISS:     253505
L2C LOAD      ACCESS:     673099  HIT:     425496  MISS:     247603
L2C RFO       ACCESS:       7868  HIT:       3367  MISS:       4501
L2C PREFETCH  ACCESS:          0  HIT:          0  MISS:          0
L2C WRITEBACK ACCESS:     234581  HIT:     233180  MISS:       1401
L2C PREFETCH  REQUESTED:          0  ISSUED:          0  USEFUL:          0  USELESS:          0
L2C AVERAGE MISS LATENCY: 165.227 cycles
LLC TOTAL     ACCESS:     349954  HIT:      57302  MISS:     292652
LLC LOAD      ACCESS:     247597  HIT:      38565  MISS:     209032
LLC RFO       ACCESS:       4501  HIT:        365  MISS:       4136
LLC PREFETCH  ACCESS:          0  HIT:          0  MISS:          0
LLC WRITEBACK ACCESS:      97856  HIT:      18372  MISS:      79484
LLC PREFETCH  REQUESTED:          0  ISSUED:          0  USEFUL:          0  USELESS:          0
LLC AVERAGE MISS LATENCY: 117.282 cycles
Major fault: 0 Minor fault: 1120

DRAM Statistics
 CHANNEL 0
 RQ ROW_BUFFER_HIT:      30413  ROW_BUFFER_MISS:     182507
 DBUS_CONGESTED:      73817
 WQ ROW_BUFFER_HIT:      53453  ROW_BUFFER_MISS:      38831  FULL:          0

 AVG_CONGESTED_CYCLE: 5

CPU 0 Branch Prediction Accuracy: 97.3581% MPKI: 6.1836 Average ROB Occupancy at Mispredict: 44.1596

Branch types
NOT_BRANCH: 22977833 76.5928%
BRANCH_DIRECT_JUMP: 691968 2.30656%
BRANCH_INDIRECT: 0 0%
BRANCH_CONDITIONAL: 6265651 20.8855%
BRANCH_DIRECT_CALL: 32101 0.107003%
BRANCH_INDIRECT_CALL: 0 0%
BRANCH_RETURN: 32102 0.107007%
BRANCH_OTHER: 0 0%

