
*** ChampSim Multicore Out-of-Order Simulator ***

Warmup Instructions: 30000000
Simulation Instructions: 30000000
Number of CPUs: 1
LLC sets: 32
LLC ways: 32
Off-chip DRAM Size: 4096 MB Channels: 1 Width: 64-bit Data Rate: 3200 MT/s

CPU 0 runs ./traces/cadical-med-30K-267B.champsimtrace.xz
[85094, 13063, 29466, 36997, 45461, 29877, 14427, 1496, 118, 1, 0, 0, 0]
[171234, 29144, 53389, 73796, 96427, 56723, 26186, 3565, 1002, 534, 0, 0, 0]
[266874, 42938, 72945, 105380, 136482, 86392, 42893, 8203, 3843, 1771, 196, 83, 0]
[352822, 59566, 96682, 138661, 188492, 117808, 54618, 9235, 4012, 1779, 242, 83, 0]
[440407, 78029, 114642, 171711, 226687, 142071, 74907, 12325, 6308, 6965, 1583, 4365, 0]
<<<<<<< HEAD
Heartbeat CPU 0 instructions: 10000002 cycles: 3446735 heartbeat IPC: 2.9013 cumulative IPC: 2.9013 (Simulation time: 0 hr 2 min 40 sec) 
=======
Heartbeat CPU 0 instructions: 10000002 cycles: 3446959 heartbeat IPC: 2.90111 cumulative IPC: 2.90111 (Simulation time: 0 hr 0 min 42 sec) 
>>>>>>> d16d50b (some data gen)
[523426, 103049, 133793, 199625, 276292, 173465, 90722, 14909, 7159, 7184, 1640, 4735, 1]
[607044, 125561, 154159, 233891, 325512, 200266, 103779, 16404, 7499, 7262, 1668, 8954, 1]
[691750, 151768, 172441, 264544, 365950, 230675, 120800, 19160, 8505, 7639, 1790, 12977, 1]
[771033, 173487, 192119, 298312, 414537, 258392, 134875, 22681, 9999, 7755, 4184, 16624, 2]
[855772, 196960, 208267, 323220, 452561, 288130, 150962, 26305, 15528, 8488, 6485, 22763, 4559]
[937952, 220159, 229697, 349891, 493143, 319345, 166618, 29327, 16448, 9178, 6760, 23881, 13601]
<<<<<<< HEAD
Heartbeat CPU 0 instructions: 20000001 cycles: 6886694 heartbeat IPC: 2.90701 cumulative IPC: 2.90415 (Simulation time: 0 hr 4 min 56 sec) 
=======
Heartbeat CPU 0 instructions: 20000001 cycles: 6886903 heartbeat IPC: 2.90702 cumulative IPC: 2.90406 (Simulation time: 0 hr 1 min 28 sec) 
>>>>>>> d16d50b (some data gen)
[1027744, 242113, 246751, 377886, 530249, 343836, 180111, 33209, 17172, 9354, 7185, 24631, 31759]
[1115440, 267589, 262949, 403670, 571401, 377330, 199022, 36703, 18301, 9638, 7318, 25458, 33181]
[1201473, 289309, 280469, 433705, 609121, 401674, 212785, 38753, 19419, 9798, 7740, 32758, 46996]
[1288158, 313067, 299240, 462724, 651036, 430076, 226532, 41863, 20747, 10137, 7851, 35524, 53045]
[1369591, 338655, 315977, 496630, 698217, 460886, 241805, 44458, 21891, 10606, 8110, 35568, 53606]
[1454426, 363034, 333917, 525139, 737758, 491560, 260077, 46738, 22548, 10848, 8193, 35570, 62192]
<<<<<<< HEAD
Heartbeat CPU 0 instructions: 30000002 cycles: 10313706 heartbeat IPC: 2.91799 cumulative IPC: 2.90875 (Simulation time: 0 hr 7 min 10 sec) 

Warmup complete CPU 0 instructions: 30000002 cycles: 10313706 (Simulation time: 0 hr 7 min 10 sec) 
=======
Heartbeat CPU 0 instructions: 30000003 cycles: 10313987 heartbeat IPC: 2.91793 cumulative IPC: 2.90867 (Simulation time: 0 hr 2 min 16 sec) 

Warmup complete CPU 0 instructions: 30000003 cycles: 10313987 (Simulation time: 0 hr 2 min 16 sec) 
>>>>>>> d16d50b (some data gen)

[1537418, 385391, 350032, 559068, 785403, 518950, 274873, 48719, 23401, 11335, 8332, 35769, 69309]
[1626886, 409224, 364822, 582273, 822650, 547154, 296688, 53493, 25554, 12051, 8851, 36133, 78221]
[1712499, 431091, 382592, 613905, 867134, 575465, 308500, 57991, 25673, 12634, 8916, 36240, 87360]
[1800050, 455674, 399437, 640567, 904270, 609004, 326665, 62448, 26605, 12788, 8950, 36253, 93289]
[1886335, 476965, 416534, 673842, 941471, 638815, 339551, 64076, 26915, 13423, 9020, 36343, 108710]
[1967906, 502172, 436304, 703843, 984381, 669281, 357072, 67150, 27669, 14531, 9149, 36405, 112137]
<<<<<<< HEAD
Heartbeat CPU 0 instructions: 40000000 cycles: 46441892 heartbeat IPC: 0.276792 cumulative IPC: 0.276792 (Simulation time: 0 hr 9 min 55 sec) 
=======
Heartbeat CPU 0 instructions: 40000000 cycles: 46478787 heartbeat IPC: 0.276512 cumulative IPC: 0.276512 (Simulation time: 0 hr 3 min 21 sec) 
>>>>>>> d16d50b (some data gen)
[2049802, 524937, 455163, 732530, 1026838, 698178, 372225, 70742, 29067, 18342, 9672, 36693, 119811]
[2131889, 546897, 471256, 771578, 1072795, 723977, 386716, 72989, 30290, 18825, 9959, 36886, 125943]
[2214475, 569885, 489918, 804497, 1118768, 753346, 401582, 76837, 31194, 19038, 10826, 36979, 128655]
[2299611, 592583, 505945, 839592, 1170986, 780862, 412286, 77921, 31414, 19553, 11965, 36982, 132300]
[2392484, 613416, 521219, 868205, 1205300, 807449, 426635, 80992, 32270, 20224, 12287, 37143, 150376]
[2476774, 634852, 538240, 899652, 1248814, 837513, 439867, 84377, 33067, 20630, 15497, 37683, 157034]
<<<<<<< HEAD
Heartbeat CPU 0 instructions: 50000002 cycles: 83261551 heartbeat IPC: 0.271594 cumulative IPC: 0.274168 (Simulation time: 0 hr 12 min 44 sec) 
=======
Heartbeat CPU 0 instructions: 50000002 cycles: 83359531 heartbeat IPC: 0.271144 cumulative IPC: 0.273802 (Simulation time: 0 hr 4 min 28 sec) 
>>>>>>> d16d50b (some data gen)
[2557827, 656560, 548495, 933793, 1285372, 868149, 456046, 91797, 36950, 23016, 16435, 38223, 167337]
[2638410, 680910, 561786, 968480, 1330312, 897774, 470899, 96899, 40136, 24609, 17139, 38354, 170292]
[2716681, 705347, 577428, 1007264, 1387206, 927226, 481150, 98026, 40511, 24847, 17299, 38424, 170591]
[2801398, 729016, 595290, 1043490, 1436681, 953441, 490550, 99086, 40720, 25402, 17306, 38425, 177195]
[2883689, 753615, 612573, 1078966, 1485331, 981955, 502309, 100370, 41039, 26007, 17711, 38487, 181948]
[2965321, 780342, 629577, 1110832, 1536522, 1009665, 514877, 102802, 42056, 26080, 17805, 38495, 185626]
<<<<<<< HEAD
Heartbeat CPU 0 instructions: 60000000 cycles: 124284716 heartbeat IPC: 0.243765 cumulative IPC: 0.263225 (Simulation time: 0 hr 15 min 15 sec) 
Finished CPU 0 instructions: 30000002 cycles: 113971011 cumulative IPC: 0.263225 (Simulation time: 0 hr 15 min 15 sec) 
=======
Heartbeat CPU 0 instructions: 60000000 cycles: 124438591 heartbeat IPC: 0.243433 cumulative IPC: 0.262871 (Simulation time: 0 hr 5 min 30 sec) 
Finished CPU 0 instructions: 30000001 cycles: 114124605 cumulative IPC: 0.262871 (Simulation time: 0 hr 5 min 30 sec) 
>>>>>>> d16d50b (some data gen)

ChampSim completed all CPUs

Region of Interest Statistics

CPU 0 cumulative IPC: 0.262871 instructions: 30000001 cycles: 114124605
L1D TOTAL     ACCESS:    8277795  HIT:    7136456  MISS:    1141339
L1D LOAD      ACCESS:    5330267  HIT:    4403076  MISS:     927191
L1D RFO       ACCESS:    2947528  HIT:    2733380  MISS:     214148
L1D PREFETCH  ACCESS:          0  HIT:          0  MISS:          0
L1D WRITEBACK ACCESS:          0  HIT:          0  MISS:          0
L1D PREFETCH  REQUESTED:          0  ISSUED:          0  USEFUL:          0  USELESS:          0
L1D AVERAGE MISS LATENCY: 157.892 cycles
L1I TOTAL     ACCESS:    5223520  HIT:    5223344  MISS:        176
L1I LOAD      ACCESS:    5223520  HIT:    5223344  MISS:        176
L1I RFO       ACCESS:          0  HIT:          0  MISS:          0
L1I PREFETCH  ACCESS:          0  HIT:          0  MISS:          0
L1I WRITEBACK ACCESS:          0  HIT:          0  MISS:          0
L1I PREFETCH  REQUESTED:          0  ISSUED:          0  USEFUL:          0  USELESS:          0
L1I AVERAGE MISS LATENCY: 225.188 cycles
L2C TOTAL     ACCESS:    1778038  HIT:     991246  MISS:     786792
L2C LOAD      ACCESS:     927335  HIT:     265308  MISS:     662027
L2C RFO       ACCESS:     214041  HIT:      90711  MISS:     123330
L2C PREFETCH  ACCESS:          0  HIT:          0  MISS:          0
L2C WRITEBACK ACCESS:     636662  HIT:     635227  MISS:       1435
L2C PREFETCH  REQUESTED:          0  ISSUED:          0  USEFUL:          0  USELESS:          0
L2C AVERAGE MISS LATENCY: 205.156 cycles
LLC TOTAL     ACCESS:    1278635  HIT:      38775  MISS:    1239860
LLC LOAD      ACCESS:     662025  HIT:      21455  MISS:     640570
LLC RFO       ACCESS:     123325  HIT:      11284  MISS:     112041
LLC PREFETCH  ACCESS:          0  HIT:          0  MISS:          0
LLC WRITEBACK ACCESS:     493285  HIT:       6036  MISS:     487249
LLC PREFETCH  REQUESTED:          0  ISSUED:          0  USEFUL:          0  USELESS:          0
LLC AVERAGE MISS LATENCY: 110.575 cycles
Major fault: 0 Minor fault: 2963

DRAM Statistics
 CHANNEL 0
 RQ ROW_BUFFER_HIT:      19224  ROW_BUFFER_MISS:     732655
 DBUS_CONGESTED:     408529
 WQ ROW_BUFFER_HIT:     269975  ROW_BUFFER_MISS:     222945  FULL:          0

 AVG_CONGESTED_CYCLE: 6

CPU 0 Branch Prediction Accuracy: 91.5058% MPKI: 12.7579 Average ROB Occupancy at Mispredict: 59.1442

Branch types
NOT_BRANCH: 25493826 84.9794%
BRANCH_DIRECT_JUMP: 320704 1.06901%
BRANCH_INDIRECT: 0 0%
BRANCH_CONDITIONAL: 4167063 13.8902%
BRANCH_DIRECT_CALL: 9037 0.0301233%
BRANCH_INDIRECT_CALL: 0 0%
BRANCH_RETURN: 9031 0.0301033%
BRANCH_OTHER: 0 0%

