
*** ChampSim Multicore Out-of-Order Simulator ***

Warmup Instructions: 30000000
Simulation Instructions: 30000000
Number of CPUs: 1
LLC sets: 32
LLC ways: 32
Off-chip DRAM Size: 4096 MB Channels: 1 Width: 64-bit Data Rate: 3200 MT/s

CPU 0 runs ./traces/cadical-med-30K-1463B.champsimtrace.xz
[91302, 22356, 20673, 33333, 38887, 31507, 12389, 2740, 1667, 1040, 105, 0, 1]
[168057, 37199, 44962, 68614, 93965, 65902, 24489, 4369, 2759, 1561, 121, 1, 1]
[245175, 50872, 65845, 102357, 144621, 101307, 42574, 6598, 5405, 2730, 259, 10, 247]
[319850, 62624, 87518, 138726, 200126, 134498, 53825, 12553, 8238, 3265, 816, 1107, 854]
[389373, 81347, 114051, 173722, 249841, 164063, 64677, 17597, 11470, 4586, 2399, 1974, 4900]
Heartbeat CPU 0 instructions: 10000001 cycles: 3515763 heartbeat IPC: 2.84433 cumulative IPC: 2.84433 (Simulation time: 0 hr 1 min 55 sec) 
[453291, 102911, 136024, 203858, 293182, 200274, 78938, 27870, 16636, 7069, 7180, 3738, 5029]
[520132, 119675, 158791, 238120, 338539, 237689, 94156, 36099, 20642, 8434, 10908, 3784, 5031]
[588685, 134807, 185397, 273379, 390509, 271668, 107505, 40613, 23502, 9636, 11547, 4826, 5926]
[662840, 153202, 219126, 301857, 428603, 300785, 122930, 47618, 27176, 12377, 12458, 7999, 7029]
[734820, 168173, 244535, 334550, 477253, 335018, 139179, 52945, 30148, 13882, 13465, 8163, 7869]
[818671, 183905, 274832, 357656, 508376, 359610, 153387, 60919, 34412, 17174, 18852, 14359, 13847]
Heartbeat CPU 0 instructions: 20000000 cycles: 6986380 heartbeat IPC: 2.88133 cumulative IPC: 2.86271 (Simulation time: 0 hr 3 min 37 sec) 
[898439, 201213, 298088, 387682, 549277, 398325, 171526, 65482, 36166, 18396, 19197, 14362, 13847]
[969094, 216840, 321465, 425240, 597614, 431514, 185811, 70695, 38594, 19596, 20967, 14496, 16074]
[1047452, 232495, 350251, 453885, 635284, 457067, 201687, 75929, 41504, 21747, 22580, 21628, 22491]
[1118351, 249207, 371368, 485058, 681206, 494213, 223075, 81223, 45208, 22723, 23891, 21953, 22524]
[1190014, 269147, 394464, 517091, 726433, 525282, 238301, 86271, 48255, 23694, 24519, 26063, 26466]
[1266490, 290683, 416340, 548332, 764800, 557721, 251716, 92619, 51524, 24433, 25183, 31068, 31091]
Heartbeat CPU 0 instructions: 30000001 cycles: 10450083 heartbeat IPC: 2.88708 cumulative IPC: 2.87079 (Simulation time: 0 hr 5 min 15 sec) 

Warmup complete CPU 0 instructions: 30000001 cycles: 10450083 (Simulation time: 0 hr 5 min 15 sec) 

[1336980, 307699, 441841, 588002, 815744, 588872, 266116, 95580, 52362, 24611, 25223, 32066, 32904]
[1403576, 323459, 464917, 624019, 862493, 619719, 283074, 103410, 57393, 28028, 25696, 33212, 35004]
[1468819, 340810, 489579, 658548, 911067, 654271, 299131, 109120, 61363, 30112, 26268, 33313, 37599]
[1536025, 360362, 511032, 688770, 957055, 688591, 319572, 115686, 66219, 32287, 27063, 33322, 40016]
[1607074, 380727, 536816, 721513, 1003182, 718451, 333760, 121002, 69855, 34838, 28069, 33425, 43288]
[1679859, 402693, 564469, 757911, 1045411, 748021, 345586, 125906, 72144, 36912, 28277, 33452, 47359]
Heartbeat CPU 0 instructions: 40000003 cycles: 49537523 heartbeat IPC: 0.255837 cumulative IPC: 0.255837 (Simulation time: 0 hr 7 min 19 sec) 
[1747596, 422539, 590206, 793931, 1097719, 778871, 360760, 130400, 74095, 37935, 28401, 33454, 48093]
[1824489, 442445, 614844, 829590, 1134599, 806672, 375559, 134634, 80214, 39095, 29358, 33757, 54744]
[1895459, 461001, 637679, 866923, 1180288, 839950, 388980, 139188, 85488, 39869, 29801, 33879, 57495]
[1964776, 480021, 659086, 902977, 1230195, 877541, 404660, 142755, 87591, 40503, 30141, 33885, 57869]
[2035001, 501906, 685798, 938556, 1279864, 907021, 416869, 147301, 89013, 41134, 30577, 33961, 60999]
[2108668, 525100, 712882, 974160, 1325773, 934215, 428887, 150646, 91126, 41876, 31026, 34030, 65611]
Heartbeat CPU 0 instructions: 50000000 cycles: 88712824 heartbeat IPC: 0.255263 cumulative IPC: 0.255549 (Simulation time: 0 hr 9 min 24 sec) 
[2184201, 545329, 738010, 1004546, 1364309, 969672, 446986, 156300, 93632, 43271, 31442, 34068, 68234]
[2253947, 560109, 766670, 1037557, 1416633, 1002540, 462156, 160063, 95643, 44822, 31904, 34071, 69885]
[2331023, 576202, 798936, 1068818, 1461051, 1033638, 473630, 164277, 98369, 45698, 32179, 34256, 73923]
[2399845, 594105, 826993, 1102599, 1513306, 1067950, 486723, 168896, 99990, 46432, 32559, 34311, 74291]
[2477374, 612605, 855186, 1132529, 1557996, 1100138, 498950, 172899, 102110, 47176, 33132, 34335, 79570]
[2548451, 631018, 880793, 1161932, 1606577, 1139316, 513138, 178532, 104128, 48339, 33332, 34421, 80023]
Heartbeat CPU 0 instructions: 60000000 cycles: 128920198 heartbeat IPC: 0.248711 cumulative IPC: 0.253228 (Simulation time: 0 hr 10 min 20 sec) 
Finished CPU 0 instructions: 30000003 cycles: 118470116 cumulative IPC: 0.253228 (Simulation time: 0 hr 10 min 20 sec) 

ChampSim completed all CPUs

Region of Interest Statistics

CPU 0 cumulative IPC: 0.253228 instructions: 30000003 cycles: 118470116
L1D TOTAL     ACCESS:    8111641  HIT:    7006350  MISS:    1105291
L1D LOAD      ACCESS:    5240652  HIT:    4326405  MISS:     914247
L1D RFO       ACCESS:    2870989  HIT:    2679945  MISS:     191044
L1D PREFETCH  ACCESS:          0  HIT:          0  MISS:          0
L1D WRITEBACK ACCESS:          0  HIT:          0  MISS:          0
L1D PREFETCH  REQUESTED:          0  ISSUED:          0  USEFUL:          0  USELESS:          0
L1D AVERAGE MISS LATENCY: 162.31 cycles
L1I TOTAL     ACCESS:    5211676  HIT:    5211618  MISS:         58
L1I LOAD      ACCESS:    5211676  HIT:    5211618  MISS:         58
L1I RFO       ACCESS:          0  HIT:          0  MISS:          0
L1I PREFETCH  ACCESS:          0  HIT:          0  MISS:          0
L1I WRITEBACK ACCESS:          0  HIT:          0  MISS:          0
L1I PREFETCH  REQUESTED:          0  ISSUED:          0  USEFUL:          0  USELESS:          0
L1I AVERAGE MISS LATENCY: 224.69 cycles
L2C TOTAL     ACCESS:    1733844  HIT:     949210  MISS:     784634
L2C LOAD      ACCESS:     914272  HIT:     239922  MISS:     674350
L2C RFO       ACCESS:     190950  HIT:      81749  MISS:     109201
L2C PREFETCH  ACCESS:          0  HIT:          0  MISS:          0
L2C WRITEBACK ACCESS:     628622  HIT:     627539  MISS:       1083
L2C PREFETCH  REQUESTED:          0  ISSUED:          0  USEFUL:          0  USELESS:          0
L2C AVERAGE MISS LATENCY: 203.994 cycles
LLC TOTAL     ACCESS:    1284310  HIT:      34890  MISS:    1249420
LLC LOAD      ACCESS:     674344  HIT:      19686  MISS:     654658
LLC RFO       ACCESS:     109194  HIT:      10179  MISS:      99015
LLC PREFETCH  ACCESS:          0  HIT:          0  MISS:          0
LLC WRITEBACK ACCESS:     500772  HIT:       5025  MISS:     495747
LLC PREFETCH  REQUESTED:          0  ISSUED:          0  USEFUL:          0  USELESS:          0
LLC AVERAGE MISS LATENCY: 108.355 cycles
Major fault: 0 Minor fault: 5479

DRAM Statistics
 CHANNEL 0
 RQ ROW_BUFFER_HIT:      23271  ROW_BUFFER_MISS:     729986
 DBUS_CONGESTED:     389659
 WQ ROW_BUFFER_HIT:     233534  ROW_BUFFER_MISS:     267045  FULL:          0

 AVG_CONGESTED_CYCLE: 6

CPU 0 Branch Prediction Accuracy: 91.4366% MPKI: 12.937 Average ROB Occupancy at Mispredict: 58.6797

Branch types
NOT_BRANCH: 25467621 84.8921%
BRANCH_DIRECT_JUMP: 291511 0.971703%
BRANCH_INDIRECT: 0 0%
BRANCH_CONDITIONAL: 4226891 14.0896%
BRANCH_DIRECT_CALL: 6892 0.0229733%
BRANCH_INDIRECT_CALL: 0 0%
BRANCH_RETURN: 6892 0.0229733%
BRANCH_OTHER: 0 0%

