
*** ChampSim Multicore Out-of-Order Simulator ***

Warmup Instructions: 30000000
Simulation Instructions: 30000000
Number of CPUs: 1
LLC sets: 32
LLC ways: 32
Off-chip DRAM Size: 4096 MB Channels: 1 Width: 64-bit Data Rate: 3200 MT/s

CPU 0 runs ./traces/cadical-med-30K-1246B.champsimtrace.xz
[92934, 15648, 22954, 34254, 40988, 22563, 13267, 9948, 2050, 1091, 146, 81, 76]
[173684, 33614, 44386, 64960, 88838, 55990, 29090, 14707, 3990, 2274, 306, 85, 76]
[252733, 49105, 65883, 103269, 145077, 85927, 41347, 16632, 5085, 2455, 326, 85, 76]
[328937, 66373, 90586, 127808, 199741, 119184, 54683, 20443, 7763, 3403, 896, 4105, 78]
[400945, 83383, 113851, 160515, 255574, 154348, 68834, 24963, 8559, 3830, 1012, 4106, 80]
Heartbeat CPU 0 instructions: 10000000 cycles: 3522495 heartbeat IPC: 2.8389 cumulative IPC: 2.8389 (Simulation time: 0 hr 2 min 37 sec) 
[465586, 100433, 133747, 197521, 314436, 183147, 84886, 28681, 12776, 7274, 1999, 4580, 934]
[541162, 123663, 147531, 229880, 364507, 219909, 98590, 31422, 13828, 8400, 4719, 4632, 3757]
[613937, 145390, 162619, 265191, 413881, 254033, 113728, 36518, 17247, 9874, 6567, 4635, 4380]
[692236, 163908, 182455, 296038, 460737, 282212, 131258, 39176, 17870, 10208, 13152, 4646, 10104]
[761678, 180184, 202598, 328384, 520048, 314734, 149084, 44032, 20204, 11029, 13272, 4649, 10104]
[832604, 196316, 226470, 358706, 574919, 343626, 163458, 48192, 22319, 11776, 17607, 4978, 15029]
Heartbeat CPU 0 instructions: 20000001 cycles: 6997248 heartbeat IPC: 2.8779 cumulative IPC: 2.85827 (Simulation time: 0 hr 4 min 56 sec) 
[913307, 215420, 243839, 386724, 615586, 374487, 182536, 56355, 24236, 12916, 18642, 5066, 22886]
[990316, 232548, 260774, 422217, 657822, 401534, 202787, 62557, 26151, 14024, 19261, 5398, 32611]
[1061408, 253244, 277888, 455443, 709309, 430712, 220420, 70952, 28536, 15388, 20774, 5494, 34432]
[1139799, 271700, 291132, 483330, 756440, 461432, 239912, 77011, 31785, 16215, 21132, 8922, 41190]
[1211973, 291182, 309192, 516514, 816252, 489686, 254262, 80225, 33789, 17142, 22580, 8931, 44272]
[1286789, 307251, 331974, 551408, 868759, 517933, 270615, 83795, 35484, 18541, 23690, 8943, 46818]
Heartbeat CPU 0 instructions: 30000000 cycles: 10493992 heartbeat IPC: 2.8598 cumulative IPC: 2.85878 (Simulation time: 0 hr 7 min 9 sec) 

Warmup complete CPU 0 instructions: 30000004 cycles: 10493993 (Simulation time: 0 hr 7 min 9 sec) 

[1367004, 327053, 352187, 582736, 910224, 545152, 285201, 91423, 38326, 22632, 24177, 9085, 52800]
[1441483, 344323, 369153, 614428, 956128, 578118, 306544, 96396, 43406, 25232, 25021, 9177, 54591]
[1519579, 364014, 384183, 644920, 1004909, 606042, 323472, 102430, 45459, 26493, 25267, 9186, 64046]
[1596736, 383608, 400828, 677697, 1053830, 635661, 341897, 109848, 47119, 27817, 26203, 9341, 65415]
[1676117, 402700, 415753, 706229, 1094708, 665689, 362264, 116522, 51150, 29094, 26991, 9445, 75338]
[1749505, 420127, 434467, 735393, 1136554, 698014, 381425, 123152, 54656, 32678, 28942, 9639, 83448]
Heartbeat CPU 0 instructions: 40000001 cycles: 48382787 heartbeat IPC: 0.26393 cumulative IPC: 0.26393 (Simulation time: 0 hr 9 min 53 sec) 
[1824504, 449164, 450172, 763105, 1180714, 733807, 400803, 127278, 57129, 34188, 29802, 9884, 83450]
[1897757, 472017, 466444, 794980, 1231798, 761554, 417718, 130748, 59448, 35815, 30531, 10004, 91186]
[1968605, 494707, 484466, 829851, 1291895, 789833, 429160, 133490, 60133, 36218, 30694, 10006, 96942]
[2028625, 523077, 502333, 860981, 1351477, 823170, 443600, 137934, 62242, 36831, 30793, 10022, 100915]
[2105741, 549560, 519419, 892631, 1403233, 849000, 455100, 145162, 64515, 37226, 31028, 10035, 105350]
[2169113, 590655, 538105, 916158, 1447330, 885887, 472960, 150276, 67996, 38313, 31523, 10334, 105350]
Heartbeat CPU 0 instructions: 50000002 cycles: 92801577 heartbeat IPC: 0.22513 cumulative IPC: 0.242991 (Simulation time: 0 hr 12 min 45 sec) 
[2240685, 614591, 555244, 951010, 1504681, 917633, 486029, 153773, 69160, 38963, 31695, 10336, 106200]
[2313184, 643750, 572246, 979136, 1552276, 948512, 501460, 162024, 70736, 39565, 32155, 10409, 110547]
[2363273, 677763, 590388, 1010323, 1612267, 982049, 516507, 167489, 74790, 41903, 33535, 10741, 110972]
[2420628, 715868, 607400, 1041262, 1671905, 1011666, 529655, 170762, 76961, 43710, 34369, 10866, 112948]
[2487075, 741086, 621098, 1072270, 1721658, 1043748, 545996, 179132, 80326, 47821, 35730, 11969, 116091]
[2547170, 772980, 637120, 1102160, 1778546, 1072033, 562321, 184438, 85032, 50106, 37000, 12030, 119064]
Heartbeat CPU 0 instructions: 60000002 cycles: 135579762 heartbeat IPC: 0.233764 cumulative IPC: 0.239835 (Simulation time: 0 hr 15 min 15 sec) 
Finished CPU 0 instructions: 30000002 cycles: 125085770 cumulative IPC: 0.239835 (Simulation time: 0 hr 15 min 15 sec) 

ChampSim completed all CPUs

Region of Interest Statistics

CPU 0 cumulative IPC: 0.239835 instructions: 30000002 cycles: 125085770
L1D TOTAL     ACCESS:    8286039  HIT:    7161531  MISS:    1124508
L1D LOAD      ACCESS:    5326942  HIT:    4392681  MISS:     934261
L1D RFO       ACCESS:    2959097  HIT:    2768850  MISS:     190247
L1D PREFETCH  ACCESS:          0  HIT:          0  MISS:          0
L1D WRITEBACK ACCESS:          0  HIT:          0  MISS:          0
L1D PREFETCH  REQUESTED:          0  ISSUED:          0  USEFUL:          0  USELESS:          0
L1D AVERAGE MISS LATENCY: 166.856 cycles
L1I TOTAL     ACCESS:    5183859  HIT:    5183849  MISS:         10
L1I LOAD      ACCESS:    5183859  HIT:    5183849  MISS:         10
L1I RFO       ACCESS:          0  HIT:          0  MISS:          0
L1I PREFETCH  ACCESS:          0  HIT:          0  MISS:          0
L1I WRITEBACK ACCESS:          0  HIT:          0  MISS:          0
L1I PREFETCH  REQUESTED:          0  ISSUED:          0  USEFUL:          0  USELESS:          0
L1I AVERAGE MISS LATENCY: 224.6 cycles
L2C TOTAL     ACCESS:    1774005  HIT:     954755  MISS:     819250
L2C LOAD      ACCESS:     934234  HIT:     230350  MISS:     703884
L2C RFO       ACCESS:     190166  HIT:      76186  MISS:     113980
L2C PREFETCH  ACCESS:          0  HIT:          0  MISS:          0
L2C WRITEBACK ACCESS:     649605  HIT:     648219  MISS:       1386
L2C PREFETCH  REQUESTED:          0  ISSUED:          0  USEFUL:          0  USELESS:          0
L2C AVERAGE MISS LATENCY: 204.902 cycles
LLC TOTAL     ACCESS:    1347598  HIT:      33158  MISS:    1314440
LLC LOAD      ACCESS:     703882  HIT:      18357  MISS:     685525
LLC RFO       ACCESS:     113973  HIT:       9990  MISS:     103983
LLC PREFETCH  ACCESS:          0  HIT:          0  MISS:          0
LLC WRITEBACK ACCESS:     529743  HIT:       4811  MISS:     524932
LLC PREFETCH  REQUESTED:          0  ISSUED:          0  USEFUL:          0  USELESS:          0
LLC AVERAGE MISS LATENCY: 108.101 cycles
Major fault: 0 Minor fault: 5621

DRAM Statistics
 CHANNEL 0
 RQ ROW_BUFFER_HIT:      18748  ROW_BUFFER_MISS:     770300
 DBUS_CONGESTED:     410331
 WQ ROW_BUFFER_HIT:     238455  ROW_BUFFER_MISS:     290947  FULL:          0

 AVG_CONGESTED_CYCLE: 6

CPU 0 Branch Prediction Accuracy: 91.2681% MPKI: 13.2923 Average ROB Occupancy at Mispredict: 58.7584

Branch types
NOT_BRANCH: 25432910 84.7764%
BRANCH_DIRECT_JUMP: 289665 0.96555%
BRANCH_INDIRECT: 0 0%
BRANCH_CONDITIONAL: 4266048 14.2202%
BRANCH_DIRECT_CALL: 5545 0.0184833%
BRANCH_INDIRECT_CALL: 0 0%
BRANCH_RETURN: 5545 0.0184833%
BRANCH_OTHER: 0 0%

