
*** ChampSim Multicore Out-of-Order Simulator ***

Warmup Instructions: 30000000
Simulation Instructions: 30000000
Number of CPUs: 1
LLC sets: 32
LLC ways: 32
Off-chip DRAM Size: 4096 MB Channels: 1 Width: 64-bit Data Rate: 3200 MT/s

CPU 0 runs ./traces/cadical-med-30K-267B.champsimtrace.xz
[89815, 9925, 27530, 38629, 42605, 31493, 14414, 1485, 104, 0, 0, 0, 0]
[176660, 24998, 52189, 76045, 90740, 59937, 26546, 2749, 1767, 365, 4, 0, 0]
[260483, 45265, 74362, 111860, 126701, 87673, 45279, 8144, 5781, 1936, 467, 49, 0]
[340758, 66168, 98377, 145946, 176869, 119230, 58007, 10161, 5811, 1943, 681, 49, 0]
[414678, 86862, 124451, 181883, 216529, 154562, 76184, 14328, 6662, 2593, 1160, 108, 0]
Heartbeat CPU 0 instructions: 10000002 cycles: 3446787 heartbeat IPC: 2.90125 cumulative IPC: 2.90125 (Simulation time: 0 hr 1 min 53 sec) 
[485374, 111931, 152744, 212836, 265927, 187010, 91266, 17220, 7523, 2791, 1248, 129, 1]
[559731, 141016, 178324, 246619, 316368, 215779, 103409, 18250, 7938, 2896, 1442, 227, 1]
[632518, 175407, 200473, 273222, 356625, 254807, 119934, 21264, 8846, 3145, 1527, 230, 2]
[703247, 199231, 222262, 316699, 406308, 282533, 132846, 23930, 10304, 3680, 1695, 1226, 39]
[779293, 224743, 242676, 347365, 443792, 316003, 148502, 28199, 11764, 4834, 2014, 6574, 4241]
[854273, 250427, 263392, 382342, 484253, 346897, 165435, 30929, 12749, 6029, 2043, 9916, 7315]
Heartbeat CPU 0 instructions: 20000001 cycles: 6886891 heartbeat IPC: 2.90689 cumulative IPC: 2.90407 (Simulation time: 0 hr 3 min 35 sec) 
[933867, 276537, 282628, 414649, 528113, 370688, 186074, 33598, 13370, 6858, 2314, 9996, 13308]
[1013806, 304974, 301487, 443914, 568944, 404877, 204484, 37523, 14306, 7215, 2441, 10008, 14021]
[1096628, 328481, 321841, 485885, 607909, 429239, 217365, 39953, 15052, 8019, 2910, 10029, 20689]
[1173263, 358549, 341223, 518850, 650504, 458483, 232877, 43767, 16219, 8317, 4687, 10047, 23214]
[1242341, 391128, 366247, 549141, 698191, 488152, 248621, 46725, 17242, 9269, 5372, 10075, 23496]
[1322584, 415046, 385986, 580458, 737664, 520716, 265240, 49165, 17865, 9511, 6953, 12992, 27820]
Heartbeat CPU 0 instructions: 30000002 cycles: 10313967 heartbeat IPC: 2.91794 cumulative IPC: 2.90868 (Simulation time: 0 hr 5 min 13 sec) 

Warmup complete CPU 0 instructions: 30000002 cycles: 10313967 (Simulation time: 0 hr 5 min 13 sec) 

[1398130, 442243, 404806, 620144, 783620, 547049, 279949, 51519, 18353, 10095, 7380, 16492, 28220]
[1471575, 476043, 426673, 647582, 818949, 575427, 302558, 55588, 20967, 10949, 8362, 16632, 32695]
[1552210, 505365, 447092, 680241, 863417, 601799, 316573, 57587, 21503, 11325, 8552, 17036, 37300]
[1635213, 534822, 468405, 707362, 901803, 631888, 336649, 60205, 22204, 11385, 8702, 17097, 40265]
[1721595, 558889, 490031, 741419, 939826, 656169, 354692, 61536, 22438, 11837, 8907, 17373, 47288]
[1795086, 589762, 514940, 770294, 982537, 686983, 371966, 65262, 23548, 12007, 8972, 17624, 49019]
Heartbeat CPU 0 instructions: 40000000 cycles: 46371997 heartbeat IPC: 0.277331 cumulative IPC: 0.277331 (Simulation time: 0 hr 7 min 18 sec) 
[1871254, 620454, 537180, 799525, 1026406, 713067, 386907, 68845, 28017, 12647, 9124, 18752, 51822]
[1939575, 648719, 558420, 839744, 1075317, 741809, 400092, 71066, 29367, 13108, 9227, 18930, 54626]
[2011538, 676707, 580891, 875639, 1121379, 770960, 416023, 73964, 30232, 14206, 9272, 19233, 55956]
[2083747, 706260, 602088, 913313, 1174346, 797485, 427583, 74957, 30734, 15232, 9348, 19470, 57437]
[2158822, 741296, 624579, 941207, 1217219, 824596, 442746, 77807, 31539, 15728, 9753, 19623, 63085]
[2233346, 768329, 648231, 975813, 1262793, 854698, 455843, 80021, 32653, 16130, 9788, 19897, 66458]
Heartbeat CPU 0 instructions: 50000002 cycles: 83147927 heartbeat IPC: 0.271917 cumulative IPC: 0.274597 (Simulation time: 0 hr 9 min 22 sec) 
[2298460, 806266, 669908, 1002682, 1301115, 885308, 470950, 89605, 36613, 18314, 10745, 20039, 69995]
[2360928, 844079, 690299, 1036294, 1343142, 917603, 487674, 94045, 40001, 19350, 11392, 20211, 70982]
[2425699, 877958, 710626, 1075655, 1399571, 946817, 497427, 95389, 40507, 19503, 11653, 20213, 70982]
[2501384, 907267, 734312, 1114605, 1448143, 972823, 507393, 96766, 41571, 19546, 12247, 20816, 71127]
[2579450, 932761, 757157, 1151049, 1495261, 1001804, 518747, 98914, 42102, 19898, 12754, 22850, 71253]
[2652249, 962789, 777315, 1187511, 1545003, 1029345, 533136, 101023, 42576, 20023, 12793, 23390, 72847]
Heartbeat CPU 0 instructions: 60000000 cycles: 124107556 heartbeat IPC: 0.244143 cumulative IPC: 0.263635 (Simulation time: 0 hr 10 min 14 sec) 
Finished CPU 0 instructions: 30000002 cycles: 113793590 cumulative IPC: 0.263635 (Simulation time: 0 hr 10 min 14 sec) 

ChampSim completed all CPUs

Region of Interest Statistics

CPU 0 cumulative IPC: 0.263635 instructions: 30000002 cycles: 113793590
L1D TOTAL     ACCESS:    8270710  HIT:    7129363  MISS:    1141347
L1D LOAD      ACCESS:    5323188  HIT:    4396002  MISS:     927186
L1D RFO       ACCESS:    2947522  HIT:    2733361  MISS:     214161
L1D PREFETCH  ACCESS:          0  HIT:          0  MISS:          0
L1D WRITEBACK ACCESS:          0  HIT:          0  MISS:          0
L1D PREFETCH  REQUESTED:          0  ISSUED:          0  USEFUL:          0  USELESS:          0
L1D AVERAGE MISS LATENCY: 157.251 cycles
L1I TOTAL     ACCESS:    5225369  HIT:    5225193  MISS:        176
L1I LOAD      ACCESS:    5225369  HIT:    5225193  MISS:        176
L1I RFO       ACCESS:          0  HIT:          0  MISS:          0
L1I PREFETCH  ACCESS:          0  HIT:          0  MISS:          0
L1I WRITEBACK ACCESS:          0  HIT:          0  MISS:          0
L1I PREFETCH  REQUESTED:          0  ISSUED:          0  USEFUL:          0  USELESS:          0
L1I AVERAGE MISS LATENCY: 227.955 cycles
L2C TOTAL     ACCESS:    1778076  HIT:     994528  MISS:     783548
L2C LOAD      ACCESS:     927337  HIT:     266793  MISS:     660544
L2C RFO       ACCESS:     214063  HIT:      92256  MISS:     121807
L2C PREFETCH  ACCESS:          0  HIT:          0  MISS:          0
L2C WRITEBACK ACCESS:     636676  HIT:     635479  MISS:       1197
L2C PREFETCH  REQUESTED:          0  ISSUED:          0  USEFUL:          0  USELESS:          0
L2C AVERAGE MISS LATENCY: 205.063 cycles
LLC TOTAL     ACCESS:    1273384  HIT:      37074  MISS:    1236310
LLC LOAD      ACCESS:     660540  HIT:      21300  MISS:     639240
LLC RFO       ACCESS:     121805  HIT:      10444  MISS:     111361
LLC PREFETCH  ACCESS:          0  HIT:          0  MISS:          0
LLC WRITEBACK ACCESS:     491039  HIT:       5330  MISS:     485709
LLC PREFETCH  REQUESTED:          0  ISSUED:          0  USEFUL:          0  USELESS:          0
LLC AVERAGE MISS LATENCY: 110.369 cycles
Major fault: 0 Minor fault: 2963

DRAM Statistics
 CHANNEL 0
 RQ ROW_BUFFER_HIT:      21168  ROW_BUFFER_MISS:     728712
 DBUS_CONGESTED:     407396
 WQ ROW_BUFFER_HIT:     269949  ROW_BUFFER_MISS:     220848  FULL:          0

 AVG_CONGESTED_CYCLE: 6

CPU 0 Branch Prediction Accuracy: 91.6256% MPKI: 12.5779 Average ROB Occupancy at Mispredict: 59.7955

Branch types
NOT_BRANCH: 25493844 84.9795%
BRANCH_DIRECT_JUMP: 320704 1.06901%
BRANCH_INDIRECT: 0 0%
BRANCH_CONDITIONAL: 4167071 13.8902%
BRANCH_DIRECT_CALL: 9037 0.0301233%
BRANCH_INDIRECT_CALL: 0 0%
BRANCH_RETURN: 9031 0.0301033%
BRANCH_OTHER: 0 0%

