
*** ChampSim Multicore Out-of-Order Simulator ***

Warmup Instructions: 30000000
Simulation Instructions: 30000000
Number of CPUs: 1
LLC sets: 32
LLC ways: 32
Off-chip DRAM Size: 4096 MB Channels: 1 Width: 64-bit Data Rate: 3200 MT/s

CPU 0 runs ./traces/cadical-med-30K-109B.champsimtrace.xz
[108387, 12957, 23573, 35416, 32832, 25375, 10327, 2067, 1254, 1063, 107, 0, 2642]
[200938, 24123, 42052, 72465, 73770, 56808, 26677, 4780, 2419, 1908, 667, 92, 5301]
[289704, 36149, 62662, 107543, 113592, 89032, 46524, 8240, 3477, 2611, 878, 95, 7493]
[379175, 48710, 81846, 144779, 155451, 120070, 63589, 11886, 4514, 3358, 949, 142, 9531]
[474366, 59386, 101431, 176405, 190224, 155509, 81991, 15093, 5608, 3921, 1440, 445, 14181]
Heartbeat CPU 0 instructions: 10000000 cycles: 3420302 heartbeat IPC: 2.92372 cumulative IPC: 2.92372 (Simulation time: 0 hr 0 min 41 sec) 
[566272, 70978, 122086, 213199, 224717, 188428, 103649, 19340, 6453, 4462, 1690, 545, 14181]
[657805, 87159, 140746, 252001, 254860, 218359, 119947, 24444, 10339, 5610, 2881, 1844, 16005]
[741056, 106399, 158563, 291521, 291112, 248825, 136960, 28036, 11369, 5916, 3059, 2295, 22889]
[827089, 124402, 177146, 327190, 325529, 278175, 158052, 32157, 12515, 6996, 3205, 2397, 29147]
[916005, 141055, 195330, 363909, 362160, 306003, 173812, 35273, 13394, 7970, 3725, 2842, 38522]
[998446, 160349, 213726, 403618, 399569, 338565, 191298, 38269, 14286, 8178, 4155, 3071, 42470]
Heartbeat CPU 0 instructions: 20000000 cycles: 6872458 heartbeat IPC: 2.89674 cumulative IPC: 2.91017 (Simulation time: 0 hr 1 min 25 sec) 
[1081810, 178554, 232225, 441023, 438367, 369457, 210456, 40945, 14983, 8918, 4548, 3301, 47413]
[1173115, 194908, 249726, 474940, 472517, 400419, 227980, 44141, 15815, 9382, 4902, 3679, 56476]
[1258800, 213164, 268480, 509081, 506981, 432854, 249529, 47884, 16722, 9745, 5239, 3745, 61776]
[1345992, 230971, 287746, 545342, 542431, 461657, 268486, 51563, 17220, 10111, 5554, 3877, 69050]
[1431306, 247028, 308008, 582040, 577153, 492153, 290505, 54382, 18462, 10605, 5587, 4189, 74582]
[1522750, 261623, 327674, 618414, 609548, 518655, 309585, 58029, 19110, 11046, 5821, 4742, 85003]
Heartbeat CPU 0 instructions: 30000003 cycles: 10286686 heartbeat IPC: 2.92892 cumulative IPC: 2.91639 (Simulation time: 0 hr 2 min 12 sec) 

Warmup complete CPU 0 instructions: 30000003 cycles: 10286686 (Simulation time: 0 hr 2 min 12 sec) 

[1607286, 279273, 347203, 657092, 645154, 547925, 328832, 61463, 20076, 11347, 6125, 4972, 91252]
[1694096, 295126, 367051, 694970, 679895, 577678, 348039, 65356, 20756, 11992, 6306, 5034, 97701]
[1774376, 312241, 391170, 730130, 714924, 611946, 368559, 68863, 21774, 12611, 6885, 5043, 101478]
[1865370, 327280, 409775, 766947, 750131, 641984, 385493, 73448, 23693, 13736, 7079, 5658, 105406]
[1953634, 343662, 426020, 801616, 780958, 674186, 407981, 76293, 25166, 14369, 7451, 8028, 112636]
[2041610, 362389, 442367, 841766, 815503, 703179, 428198, 79150, 27393, 14619, 7620, 8501, 115705]
Heartbeat CPU 0 instructions: 40000002 cycles: 42147747 heartbeat IPC: 0.313863 cumulative IPC: 0.313863 (Simulation time: 0 hr 3 min 14 sec) 
[2132685, 380974, 458092, 876040, 844438, 734553, 448668, 86354, 28117, 15576, 9440, 9038, 120025]
[2218589, 398955, 474267, 913584, 878968, 766462, 469230, 89424, 28830, 16172, 10843, 9599, 125077]
[2310207, 412249, 490363, 951526, 911112, 794028, 488116, 93573, 30261, 17138, 11843, 10126, 135458]
[2394205, 426153, 509075, 993260, 947792, 825461, 508501, 96442, 30686, 17307, 12123, 10341, 140654]
[2489877, 438542, 527649, 1028541, 977673, 851926, 525830, 100795, 32425, 17873, 12374, 10438, 154057]
Heartbeat CPU 0 instructions: 50000003 cycles: 74244191 heartbeat IPC: 0.311561 cumulative IPC: 0.312708 (Simulation time: 0 hr 4 min 19 sec) 
[2568123, 458211, 549561, 1069005, 1014571, 886978, 543521, 103638, 33184, 18234, 12385, 10580, 156009]
[2651359, 475781, 569300, 1111591, 1054092, 915184, 558526, 106421, 33876, 18490, 12923, 10727, 161730]
[2737169, 490898, 589644, 1149276, 1090298, 947038, 576925, 108959, 35104, 19048, 13287, 10829, 167525]
[2825135, 506841, 610813, 1186938, 1123225, 977330, 595985, 111670, 35970, 19542, 13699, 11041, 173811]
[2916427, 522267, 629643, 1223541, 1156338, 1004808, 613681, 115484, 36879, 19980, 14266, 11309, 183377]
[2998155, 539176, 649202, 1261093, 1195981, 1034849, 633153, 119265, 38069, 20985, 15607, 11515, 186950]
Heartbeat CPU 0 instructions: 60000003 cycles: 106575542 heartbeat IPC: 0.309297 cumulative IPC: 0.311563 (Simulation time: 0 hr 5 min 22 sec) 
Finished CPU 0 instructions: 30000000 cycles: 96288856 cumulative IPC: 0.311563 (Simulation time: 0 hr 5 min 22 sec) 

ChampSim completed all CPUs

Region of Interest Statistics

CPU 0 cumulative IPC: 0.311563 instructions: 30000000 cycles: 96288856
L1D TOTAL     ACCESS:    7757997  HIT:    6621938  MISS:    1136059
L1D LOAD      ACCESS:    5118999  HIT:    4196186  MISS:     922813
L1D RFO       ACCESS:    2638998  HIT:    2425752  MISS:     213246
L1D PREFETCH  ACCESS:          0  HIT:          0  MISS:          0
L1D WRITEBACK ACCESS:          0  HIT:          0  MISS:          0
L1D PREFETCH  REQUESTED:          0  ISSUED:          0  USEFUL:          0  USELESS:          0
L1D AVERAGE MISS LATENCY: 143.65 cycles
L1I TOTAL     ACCESS:    5265463  HIT:    5264511  MISS:        952
L1I LOAD      ACCESS:    5265463  HIT:    5264511  MISS:        952
L1I RFO       ACCESS:          0  HIT:          0  MISS:          0
L1I PREFETCH  ACCESS:          0  HIT:          0  MISS:          0
L1I WRITEBACK ACCESS:          0  HIT:          0  MISS:          0
L1I PREFETCH  REQUESTED:          0  ISSUED:          0  USEFUL:          0  USELESS:          0
L1I AVERAGE MISS LATENCY: 224.912 cycles
L2C TOTAL     ACCESS:    1708368  HIT:    1001938  MISS:     706430
L2C LOAD      ACCESS:     923721  HIT:     319898  MISS:     603823
L2C RFO       ACCESS:     213118  HIT:     111562  MISS:     101556
L2C PREFETCH  ACCESS:          0  HIT:          0  MISS:          0
L2C WRITEBACK ACCESS:     571529  HIT:     570478  MISS:       1051
L2C PREFETCH  REQUESTED:          0  ISSUED:          0  USEFUL:          0  USELESS:          0
L2C AVERAGE MISS LATENCY: 206.115 cycles
LLC TOTAL     ACCESS:    1105993  HIT:      36589  MISS:    1069404
LLC LOAD      ACCESS:     603822  HIT:      19499  MISS:     584323
LLC RFO       ACCESS:     101553  HIT:      10381  MISS:      91172
LLC PREFETCH  ACCESS:          0  HIT:          0  MISS:          0
LLC WRITEBACK ACCESS:     400618  HIT:       6709  MISS:     393909
LLC PREFETCH  REQUESTED:          0  ISSUED:          0  USEFUL:          0  USELESS:          0
LLC AVERAGE MISS LATENCY: 116.039 cycles
Major fault: 0 Minor fault: 2176

DRAM Statistics
 CHANNEL 0
 RQ ROW_BUFFER_HIT:      22770  ROW_BUFFER_MISS:     651869
 DBUS_CONGESTED:     348997
 WQ ROW_BUFFER_HIT:     245397  ROW_BUFFER_MISS:     154788  FULL:          0

 AVG_CONGESTED_CYCLE: 6

CPU 0 Branch Prediction Accuracy: 93.1457% MPKI: 10.1173 Average ROB Occupancy at Mispredict: 73.7129

Branch types
NOT_BRANCH: 25571631 85.2388%
BRANCH_DIRECT_JUMP: 312551 1.04184%
BRANCH_INDIRECT: 0 0%
BRANCH_CONDITIONAL: 4076729 13.5891%
BRANCH_DIRECT_CALL: 19428 0.06476%
BRANCH_INDIRECT_CALL: 0 0%
BRANCH_RETURN: 19428 0.06476%
BRANCH_OTHER: 0 0%

