
*** ChampSim Multicore Out-of-Order Simulator ***

Warmup Instructions: 30000000
Simulation Instructions: 30000000
Number of CPUs: 1
LLC sets: 32
LLC ways: 32
Off-chip DRAM Size: 4096 MB Channels: 1 Width: 64-bit Data Rate: 3200 MT/s

CPU 0 runs ./traces/cadical-med-30K-1463B.champsimtrace.xz
[93319, 21843, 17564, 33016, 41368, 30732, 11093, 4391, 1885, 651, 128, 10, 0]
[173280, 36730, 34307, 72909, 94914, 65972, 23024, 6710, 2889, 885, 370, 10, 0]
[254112, 49462, 46471, 118174, 140026, 101270, 39653, 10447, 5518, 1474, 945, 202, 246]
[331333, 64691, 59400, 157965, 195654, 135273, 50757, 14849, 7880, 2759, 1916, 286, 1237]
[409766, 79276, 77900, 192734, 247613, 162011, 62946, 20076, 12760, 5267, 3836, 917, 4898]
Heartbeat CPU 0 instructions: 10000001 cycles: 3515471 heartbeat IPC: 2.84457 cumulative IPC: 2.84457 (Simulation time: 0 hr 2 min 37 sec) 
[490145, 94632, 88418, 223766, 291635, 196210, 79885, 28372, 18631, 7167, 7699, 3298, 6142]
[565853, 112581, 100616, 255952, 337073, 234828, 97215, 32684, 23540, 8728, 9310, 3408, 10212]
[645221, 128743, 112054, 292564, 390093, 267575, 112501, 36855, 26358, 9572, 9861, 4432, 12171]
[727474, 149150, 130865, 321360, 429632, 294183, 129068, 44373, 30982, 11609, 10403, 4528, 20373]
[805910, 170663, 142730, 354820, 477715, 326620, 147402, 49497, 33701, 12848, 11454, 4592, 22048]
[907394, 182756, 152973, 382816, 509583, 349938, 163904, 57485, 39311, 15743, 13870, 5665, 34562]
Heartbeat CPU 0 instructions: 20000000 cycles: 6986033 heartbeat IPC: 2.88138 cumulative IPC: 2.86285 (Simulation time: 0 hr 4 min 57 sec) 
[1000107, 203733, 160834, 410544, 551810, 387636, 182579, 62375, 41328, 16670, 14157, 5665, 34562]
[1078815, 222272, 172370, 448177, 604442, 417959, 197673, 67160, 43578, 18025, 14364, 5665, 37500]
[1165097, 240322, 187695, 477467, 641417, 441483, 214351, 77266, 47204, 19468, 15793, 6022, 50415]
[1243918, 263843, 199461, 504674, 684323, 480017, 235746, 83231, 50678, 20394, 16915, 6351, 50449]
[1325327, 283553, 217857, 537762, 726082, 509956, 250363, 89594, 52922, 21460, 17209, 6394, 57521]
[1410401, 306731, 234338, 568074, 764130, 540933, 266301, 94624, 57193, 23002, 17589, 6538, 62146]
Heartbeat CPU 0 instructions: 30000001 cycles: 10449764 heartbeat IPC: 2.88706 cumulative IPC: 2.87088 (Simulation time: 0 hr 7 min 10 sec) 

Warmup complete CPU 0 instructions: 30000001 cycles: 10449764 (Simulation time: 0 hr 7 min 10 sec) 

[1489615, 329319, 249031, 605040, 814095, 574874, 280071, 97494, 57939, 23257, 17626, 6542, 63097]
[1561646, 348848, 265998, 639323, 858391, 608627, 295558, 106691, 63312, 25684, 18059, 6701, 65162]
[1637563, 368999, 282117, 674682, 905263, 640561, 310563, 111932, 66629, 28684, 18394, 6834, 67779]
[1713656, 391967, 297018, 704673, 950483, 669469, 329213, 121355, 70518, 31512, 19094, 6845, 70197]
[1792170, 412998, 314643, 737517, 999885, 695764, 343505, 128356, 74616, 32467, 19672, 6937, 73470]
[1872384, 434885, 334320, 771645, 1049676, 720944, 355087, 133438, 77679, 33422, 20021, 6955, 77544]
Heartbeat CPU 0 instructions: 40000003 cycles: 49610847 heartbeat IPC: 0.255356 cumulative IPC: 0.255356 (Simulation time: 0 hr 9 min 58 sec) 
[1948955, 455896, 351178, 806382, 1103300, 751254, 370573, 137397, 79882, 34071, 20097, 6959, 78056]
[2036608, 474308, 368118, 841429, 1142760, 777330, 383398, 141651, 83247, 35693, 20741, 11059, 83658]
[2115597, 492793, 383915, 877203, 1190472, 807159, 398294, 145989, 85596, 37384, 21225, 12075, 88298]
[2190964, 513740, 401092, 910110, 1240179, 842927, 413353, 150492, 88572, 38076, 21611, 12127, 88757]
[2268980, 535858, 419975, 946173, 1287553, 870652, 427370, 153696, 91000, 39429, 22765, 12318, 92231]
[2345538, 561715, 441400, 978905, 1332768, 896892, 439305, 156706, 93478, 40192, 23219, 12431, 101451]
Heartbeat CPU 0 instructions: 50000000 cycles: 88772969 heartbeat IPC: 0.255349 cumulative IPC: 0.255352 (Simulation time: 0 hr 12 min 47 sec) 
[2428680, 581044, 460611, 1006494, 1373256, 928799, 457049, 162733, 96006, 42281, 23656, 12696, 106695]
[2502682, 596538, 480767, 1042191, 1427117, 957650, 473219, 166532, 98435, 43954, 24128, 12792, 109995]
[2587317, 610866, 500315, 1075508, 1471745, 988757, 486320, 170089, 100469, 44819, 24676, 13055, 118064]
[2661117, 632515, 515760, 1112178, 1525913, 1020309, 501408, 172943, 103372, 45367, 25244, 13075, 118799]
[2737758, 660845, 530603, 1142970, 1569341, 1049579, 513812, 177445, 105064, 46020, 27759, 13208, 129596]
[2808935, 686425, 546551, 1175357, 1617497, 1087721, 530079, 180971, 107842, 47017, 28290, 13266, 130049]
Heartbeat CPU 0 instructions: 60000000 cycles: 128993714 heartbeat IPC: 0.248628 cumulative IPC: 0.253071 (Simulation time: 0 hr 15 min 10 sec) 
Finished CPU 0 instructions: 30000003 cycles: 118543951 cumulative IPC: 0.253071 (Simulation time: 0 hr 15 min 10 sec) 

ChampSim completed all CPUs

Region of Interest Statistics

CPU 0 cumulative IPC: 0.253071 instructions: 30000003 cycles: 118543951
L1D TOTAL     ACCESS:    8119627  HIT:    7014357  MISS:    1105270
L1D LOAD      ACCESS:    5248634  HIT:    4334403  MISS:     914231
L1D RFO       ACCESS:    2870993  HIT:    2679954  MISS:     191039
L1D PREFETCH  ACCESS:          0  HIT:          0  MISS:          0
L1D WRITEBACK ACCESS:          0  HIT:          0  MISS:          0
L1D PREFETCH  REQUESTED:          0  ISSUED:          0  USEFUL:          0  USELESS:          0
L1D AVERAGE MISS LATENCY: 162.348 cycles
L1I TOTAL     ACCESS:    5212015  HIT:    5211957  MISS:         58
L1I LOAD      ACCESS:    5212015  HIT:    5211957  MISS:         58
L1I RFO       ACCESS:          0  HIT:          0  MISS:          0
L1I PREFETCH  ACCESS:          0  HIT:          0  MISS:          0
L1I WRITEBACK ACCESS:          0  HIT:          0  MISS:          0
L1I PREFETCH  REQUESTED:          0  ISSUED:          0  USEFUL:          0  USELESS:          0
L1I AVERAGE MISS LATENCY: 223.034 cycles
L2C TOTAL     ACCESS:    1733821  HIT:     949816  MISS:     784005
L2C LOAD      ACCESS:     914259  HIT:     240266  MISS:     673993
L2C RFO       ACCESS:     190950  HIT:      82109  MISS:     108841
L2C PREFETCH  ACCESS:          0  HIT:          0  MISS:          0
L2C WRITEBACK ACCESS:     628612  HIT:     627441  MISS:       1171
L2C PREFETCH  REQUESTED:          0  ISSUED:          0  USEFUL:          0  USELESS:          0
L2C AVERAGE MISS LATENCY: 204.213 cycles
LLC TOTAL     ACCESS:    1282912  HIT:      34132  MISS:    1248780
LLC LOAD      ACCESS:     673991  HIT:      19541  MISS:     654450
LLC RFO       ACCESS:     108837  HIT:       9817  MISS:      99020
LLC PREFETCH  ACCESS:          0  HIT:          0  MISS:          0
LLC WRITEBACK ACCESS:     500084  HIT:       4774  MISS:     495310
LLC PREFETCH  REQUESTED:          0  ISSUED:          0  USEFUL:          0  USELESS:          0
LLC AVERAGE MISS LATENCY: 108.478 cycles
Major fault: 0 Minor fault: 5479

DRAM Statistics
 CHANNEL 0
 RQ ROW_BUFFER_HIT:      22876  ROW_BUFFER_MISS:     730162
 DBUS_CONGESTED:     389017
 WQ ROW_BUFFER_HIT:     232474  ROW_BUFFER_MISS:     267419  FULL:          0

 AVG_CONGESTED_CYCLE: 6

CPU 0 Branch Prediction Accuracy: 91.3139% MPKI: 13.1224 Average ROB Occupancy at Mispredict: 57.9492

Branch types
NOT_BRANCH: 25467621 84.8921%
BRANCH_DIRECT_JUMP: 291511 0.971703%
BRANCH_INDIRECT: 0 0%
BRANCH_CONDITIONAL: 4226891 14.0896%
BRANCH_DIRECT_CALL: 6892 0.0229733%
BRANCH_INDIRECT_CALL: 0 0%
BRANCH_RETURN: 6892 0.0229733%
BRANCH_OTHER: 0 0%

