
*** ChampSim Multicore Out-of-Order Simulator ***

Warmup Instructions: 30000000
Simulation Instructions: 30000000
Number of CPUs: 1
LLC sets: 32
LLC ways: 32
Off-chip DRAM Size: 4096 MB Channels: 1 Width: 64-bit Data Rate: 3200 MT/s

CPU 0 runs ./traces/kissat-mab-hywalk-low-30K-299B.champsimtrace.xz
[114364, 16879, 15851, 23353, 27665, 19523, 16615, 9463, 6746, 3540, 1682, 318, 1]
[216014, 36296, 32779, 53145, 64814, 43064, 31330, 16743, 9634, 5333, 2392, 455, 1]
[320983, 52952, 52443, 85984, 104987, 66592, 41913, 20574, 11754, 6312, 2801, 704, 1]
[419289, 70022, 75273, 119136, 143465, 93325, 53056, 24800, 13319, 6889, 3262, 2057, 107]
[516955, 87850, 93896, 157049, 179047, 121335, 65273, 28420, 14706, 8578, 3718, 2360, 813]
Heartbeat CPU 0 instructions: 10000001 cycles: 3624363 heartbeat IPC: 2.75911 cumulative IPC: 2.75911 (Simulation time: 0 hr 2 min 31 sec) 
[615134, 104646, 117914, 189023, 211328, 148727, 79136, 33100, 16795, 10951, 3954, 3608, 1684]
[713708, 120686, 140065, 219841, 243626, 178783, 92836, 38283, 20178, 12604, 4574, 4034, 2782]
[809214, 135339, 157114, 250275, 280317, 213794, 108614, 44009, 22813, 13411, 5236, 4180, 3684]
[895274, 146657, 169533, 279847, 312041, 254193, 124940, 52685, 31738, 18383, 9247, 5447, 4015]
[978804, 157939, 184163, 324458, 348343, 281201, 143236, 62601, 37868, 21584, 10191, 5597, 4015]
[1058453, 169030, 199978, 370393, 382206, 304584, 160388, 72742, 46446, 27239, 13291, 7093, 4157]
Heartbeat CPU 0 instructions: 20000001 cycles: 7151000 heartbeat IPC: 2.83556 cumulative IPC: 2.79681 (Simulation time: 0 hr 4 min 45 sec) 
[1140142, 179724, 215450, 414854, 415161, 329897, 178917, 83715, 52547, 32608, 15664, 8906, 4415]
[1217571, 190501, 231932, 463869, 447577, 354531, 198476, 94440, 61369, 36380, 17638, 9301, 4415]
[1296489, 200553, 247263, 512394, 477231, 377925, 218605, 106652, 70505, 42241, 19813, 9887, 4442]
[1378502, 211038, 261951, 559012, 506796, 400626, 238060, 117944, 79639, 48893, 21884, 11082, 4573]
[1461763, 221914, 277815, 603686, 538129, 424886, 258735, 129059, 86413, 53078, 23511, 12098, 4913]
[1541450, 232998, 292705, 650899, 568170, 448061, 279872, 140717, 95917, 57911, 25811, 12519, 4970]
Heartbeat CPU 0 instructions: 30000002 cycles: 10509154 heartbeat IPC: 2.97783 cumulative IPC: 2.85465 (Simulation time: 0 hr 6 min 52 sec) 

Warmup complete CPU 0 instructions: 30000002 cycles: 10509154 (Simulation time: 0 hr 6 min 52 sec) 

[1622778, 243810, 306841, 698184, 595595, 470717, 298907, 151779, 105632, 65460, 29609, 13399, 5289]
[1702789, 255463, 321247, 745609, 623282, 493628, 318672, 164385, 113925, 73136, 32105, 14109, 5650]
[1784869, 267718, 335667, 792224, 655714, 517297, 335677, 175128, 121737, 78941, 34338, 14823, 5867]
[1866180, 279908, 350243, 839282, 690135, 541624, 355026, 185210, 128935, 82503, 35748, 15151, 6055]
[1948797, 291214, 364690, 885553, 719153, 565121, 375107, 198298, 138057, 86657, 37591, 15488, 6274]
[2028438, 302921, 379410, 933901, 750235, 586752, 393871, 210164, 146536, 91800, 39862, 17574, 6536]
Heartbeat CPU 0 instructions: 40000001 cycles: 27120590 heartbeat IPC: 0.601995 cumulative IPC: 0.601995 (Simulation time: 0 hr 9 min 3 sec) 
[2108357, 314949, 394943, 979986, 781230, 610088, 415492, 220208, 153804, 97412, 42726, 18105, 6700]
[2193159, 327066, 409128, 1025423, 811887, 632477, 435373, 230981, 162817, 101381, 44858, 18673, 6777]
[2275077, 338806, 424645, 1072437, 842541, 653548, 455108, 243111, 170257, 107772, 46524, 19388, 6786]
[2357440, 349707, 438480, 1118662, 870411, 673276, 475735, 256151, 180860, 113639, 50274, 20564, 6801]
[2437439, 360471, 452888, 1166881, 899489, 694961, 496044, 266295, 189646, 119983, 54038, 22779, 7086]
[2524012, 371961, 466600, 1212479, 934937, 720274, 514136, 274069, 195551, 123260, 55863, 23641, 7217]
Heartbeat CPU 0 instructions: 50000000 cycles: 44095893 heartbeat IPC: 0.589091 cumulative IPC: 0.595473 (Simulation time: 0 hr 11 min 15 sec) 
[2606781, 384232, 480436, 1258541, 970555, 748542, 533409, 282674, 201466, 125085, 57004, 23979, 7296]
[2690615, 396020, 493540, 1305776, 998651, 774569, 553424, 294294, 209765, 129506, 58148, 24339, 7353]
[2773902, 408279, 508621, 1349753, 1035291, 800108, 571759, 303132, 215957, 133299, 59865, 24582, 7452]
[2864474, 420584, 523589, 1389589, 1069738, 827071, 590965, 311382, 220369, 135363, 61952, 25124, 7800]
[2953174, 432518, 537385, 1431046, 1105013, 854793, 613112, 319218, 224247, 136979, 63170, 25456, 7889]
[3036633, 444265, 552225, 1476787, 1142511, 878308, 632620, 328407, 230207, 139553, 64593, 25955, 7936]
Heartbeat CPU 0 instructions: 60000000 cycles: 63169489 heartbeat IPC: 0.524285 cumulative IPC: 0.569689 (Simulation time: 0 hr 13 min 29 sec) 
Finished CPU 0 instructions: 30000000 cycles: 52660350 cumulative IPC: 0.569689 (Simulation time: 0 hr 13 min 29 sec) 

ChampSim completed all CPUs

Region of Interest Statistics

CPU 0 cumulative IPC: 0.569689 instructions: 30000000 cycles: 52660350
L1D TOTAL     ACCESS:    8124748  HIT:    7712477  MISS:     412271
L1D LOAD      ACCESS:    4488595  HIT:    4116599  MISS:     371996
L1D RFO       ACCESS:    3636153  HIT:    3595878  MISS:      40275
L1D PREFETCH  ACCESS:          0  HIT:          0  MISS:          0
L1D WRITEBACK ACCESS:          0  HIT:          0  MISS:          0
L1D PREFETCH  REQUESTED:          0  ISSUED:          0  USEFUL:          0  USELESS:          0
L1D AVERAGE MISS LATENCY: 128.558 cycles
L1I TOTAL     ACCESS:    5414691  HIT:    5414691  MISS:          0
L1I LOAD      ACCESS:    5414691  HIT:    5414691  MISS:          0
L1I RFO       ACCESS:          0  HIT:          0  MISS:          0
L1I PREFETCH  ACCESS:          0  HIT:          0  MISS:          0
L1I WRITEBACK ACCESS:          0  HIT:          0  MISS:          0
L1I PREFETCH  REQUESTED:          0  ISSUED:          0  USEFUL:          0  USELESS:          0
L1I AVERAGE MISS LATENCY: -nan cycles
L2C TOTAL     ACCESS:     658039  HIT:     404280  MISS:     253759
L2C LOAD      ACCESS:     371962  HIT:     140068  MISS:     231894
L2C RFO       ACCESS:      40271  HIT:      19687  MISS:      20584
L2C PREFETCH  ACCESS:          0  HIT:          0  MISS:          0
L2C WRITEBACK ACCESS:     245806  HIT:     244525  MISS:       1281
L2C PREFETCH  REQUESTED:          0  ISSUED:          0  USEFUL:          0  USELESS:          0
L2C AVERAGE MISS LATENCY: 184.308 cycles
LLC TOTAL     ACCESS:     424179  HIT:      30703  MISS:     393476
LLC LOAD      ACCESS:     231893  HIT:      20140  MISS:     211753
LLC RFO       ACCESS:      20579  HIT:       5143  MISS:      15436
LLC PREFETCH  ACCESS:          0  HIT:          0  MISS:          0
LLC WRITEBACK ACCESS:     171707  HIT:       5420  MISS:     166287
LLC PREFETCH  REQUESTED:          0  ISSUED:          0  USEFUL:          0  USELESS:          0
LLC AVERAGE MISS LATENCY: 99.5806 cycles
Major fault: 0 Minor fault: 2676

DRAM Statistics
 CHANNEL 0
 RQ ROW_BUFFER_HIT:      13495  ROW_BUFFER_MISS:     213553
 DBUS_CONGESTED:      77888
 WQ ROW_BUFFER_HIT:      80991  ROW_BUFFER_MISS:      89696  FULL:          0

 AVG_CONGESTED_CYCLE: 6

CPU 0 Branch Prediction Accuracy: 94.1204% MPKI: 8.7944 Average ROB Occupancy at Mispredict: 59.1296

Branch types
NOT_BRANCH: 25512378 85.0413%
BRANCH_DIRECT_JUMP: 700866 2.33622%
BRANCH_INDIRECT: 0 0%
BRANCH_CONDITIONAL: 3649489 12.165%
BRANCH_DIRECT_CALL: 68462 0.228207%
BRANCH_INDIRECT_CALL: 0 0%
BRANCH_RETURN: 68462 0.228207%
BRANCH_OTHER: 0 0%

