
*** ChampSim Multicore Out-of-Order Simulator ***

Warmup Instructions: 30000000
Simulation Instructions: 30000000
Number of CPUs: 1
LLC sets: 32
LLC ways: 32
Off-chip DRAM Size: 4096 MB Channels: 1 Width: 64-bit Data Rate: 3200 MT/s

CPU 0 runs ./traces/cadical-med-30K-1246B.champsimtrace.xz
[94103, 17097, 20577, 37377, 43022, 27277, 9902, 3862, 1895, 571, 161, 80, 76]
[171840, 40512, 39437, 67344, 90749, 62753, 25083, 8010, 3928, 1846, 335, 87, 76]
[249073, 59121, 59079, 108217, 144282, 92481, 37979, 10444, 4613, 2013, 534, 88, 76]
[321213, 81993, 80659, 137427, 188766, 128671, 55850, 18210, 6843, 2963, 1137, 190, 78]
[390659, 104070, 100133, 174237, 241961, 162865, 70940, 21915, 7900, 3316, 1391, 534, 79]
Heartbeat CPU 0 instructions: 10000000 cycles: 3522308 heartbeat IPC: 2.83905 cumulative IPC: 2.83905 (Simulation time: 0 hr 1 min 57 sec) 
[455952, 121469, 118590, 212385, 298633, 192632, 85292, 26293, 11449, 6623, 2351, 4252, 79]
[531405, 141715, 137397, 245269, 346233, 225802, 99910, 29140, 12523, 6999, 2659, 10497, 2451]
[603787, 160994, 156447, 280990, 397238, 256362, 116467, 33333, 14617, 8932, 4444, 11313, 3076]
[682573, 179600, 177039, 317800, 445291, 281825, 128483, 35830, 15342, 9063, 4913, 17443, 8798]
[753331, 195606, 196149, 350505, 501308, 317486, 146449, 40277, 17190, 10222, 5234, 17445, 8798]
[823674, 211902, 217672, 384695, 555103, 345089, 162396, 42973, 19140, 11700, 6570, 21358, 13728]
Heartbeat CPU 0 instructions: 20000000 cycles: 6996963 heartbeat IPC: 2.87798 cumulative IPC: 2.85838 (Simulation time: 0 hr 3 min 41 sec) 
[899418, 232249, 239421, 410691, 594588, 378134, 180437, 48087, 25297, 13430, 7667, 21412, 21169]
[971933, 250892, 259223, 442204, 643761, 404459, 196874, 54109, 27923, 15007, 8934, 21779, 30902]
[1036591, 274660, 280082, 476180, 694242, 434447, 216300, 60310, 30258, 16330, 9823, 22047, 32730]
[1107993, 295513, 298960, 505648, 740637, 465682, 236072, 67292, 31815, 18526, 10144, 22229, 39489]
[1174269, 315454, 321407, 544378, 794624, 494783, 250801, 70098, 33633, 19960, 11637, 22382, 42574]
[1245329, 332882, 344637, 583979, 841383, 522986, 266859, 73723, 35597, 21129, 13273, 22464, 47759]
Heartbeat CPU 0 instructions: 30000000 cycles: 10493611 heartbeat IPC: 2.85988 cumulative IPC: 2.85888 (Simulation time: 0 hr 5 min 19 sec) 

Warmup complete CPU 0 instructions: 30000004 cycles: 10493612 (Simulation time: 0 hr 5 min 19 sec) 

[1318725, 359222, 369581, 620291, 873039, 546077, 281528, 79017, 40889, 22480, 14395, 22887, 59869]
[1388291, 377618, 391862, 651731, 918177, 578374, 300675, 86009, 45347, 24893, 16961, 22893, 61169]
[1461977, 398624, 410665, 685628, 961974, 608195, 316053, 91685, 47887, 26285, 17251, 24777, 68999]
[1535909, 416328, 431498, 719311, 1008668, 639105, 335265, 96230, 50512, 27877, 18811, 25023, 71463]
[1612300, 435815, 449111, 746561, 1050043, 668117, 352955, 101655, 53882, 29678, 19953, 25349, 86581]
[1684577, 453150, 467280, 777615, 1091287, 696489, 371418, 108361, 60225, 31978, 21327, 25543, 98750]
Heartbeat CPU 0 instructions: 40000001 cycles: 48331855 heartbeat IPC: 0.264283 cumulative IPC: 0.264283 (Simulation time: 0 hr 7 min 25 sec) 
[1757965, 477948, 487113, 805393, 1134871, 735134, 390579, 112012, 63562, 32831, 22051, 25789, 98752]
[1829054, 498385, 506503, 839316, 1180969, 763779, 406648, 115438, 66157, 34794, 22700, 25901, 110356]
[1896779, 519620, 527359, 875405, 1237923, 792807, 418426, 117356, 67008, 35383, 22990, 25951, 118993]
[1953201, 548165, 548722, 906432, 1295785, 825965, 431748, 121844, 69605, 35909, 23096, 26060, 125468]
[2020106, 575132, 569762, 937130, 1348317, 854295, 442604, 124066, 72022, 36347, 23266, 26184, 138769]
[2072094, 621305, 594137, 959779, 1394071, 891579, 459910, 129124, 75276, 37861, 23747, 26348, 138769]
Heartbeat CPU 0 instructions: 50000002 cycles: 92738931 heartbeat IPC: 0.225189 cumulative IPC: 0.243175 (Simulation time: 0 hr 9 min 34 sec) 
[2137039, 645365, 615853, 995242, 1451905, 922825, 472686, 131999, 76922, 38407, 23901, 27383, 140473]
[2201752, 673987, 636017, 1025612, 1499328, 956121, 487634, 136745, 78692, 39259, 24066, 31965, 144822]
[2248040, 707117, 657384, 1058314, 1558595, 989988, 502736, 143093, 81687, 41789, 25332, 32793, 145132]
[2302193, 742967, 679313, 1092245, 1614675, 1019010, 515568, 146370, 83725, 43257, 26362, 35137, 147178]
[2366411, 765389, 699504, 1120610, 1663377, 1050313, 534355, 155775, 88176, 46046, 27476, 38681, 147887]
[2424136, 795936, 719889, 1150242, 1718673, 1079751, 550190, 163179, 90892, 48951, 28387, 41885, 147889]
Heartbeat CPU 0 instructions: 60000002 cycles: 135490481 heartbeat IPC: 0.23391 cumulative IPC: 0.240006 (Simulation time: 0 hr 10 min 24 sec) 
Finished CPU 0 instructions: 30000002 cycles: 124996870 cumulative IPC: 0.240006 (Simulation time: 0 hr 10 min 24 sec) 

ChampSim completed all CPUs

Region of Interest Statistics

CPU 0 cumulative IPC: 0.240006 instructions: 30000002 cycles: 124996870
L1D TOTAL     ACCESS:    8279833  HIT:    7155324  MISS:    1124509
L1D LOAD      ACCESS:    5320623  HIT:    4386361  MISS:     934262
L1D RFO       ACCESS:    2959210  HIT:    2768963  MISS:     190247
L1D PREFETCH  ACCESS:          0  HIT:          0  MISS:          0
L1D WRITEBACK ACCESS:          0  HIT:          0  MISS:          0
L1D PREFETCH  REQUESTED:          0  ISSUED:          0  USEFUL:          0  USELESS:          0
L1D AVERAGE MISS LATENCY: 166.605 cycles
L1I TOTAL     ACCESS:    5183524  HIT:    5183514  MISS:         10
L1I LOAD      ACCESS:    5183524  HIT:    5183514  MISS:         10
L1I RFO       ACCESS:          0  HIT:          0  MISS:          0
L1I PREFETCH  ACCESS:          0  HIT:          0  MISS:          0
L1I WRITEBACK ACCESS:          0  HIT:          0  MISS:          0
L1I PREFETCH  REQUESTED:          0  ISSUED:          0  USEFUL:          0  USELESS:          0
L1I AVERAGE MISS LATENCY: 214.6 cycles
L2C TOTAL     ACCESS:    1774012  HIT:     957228  MISS:     816784
L2C LOAD      ACCESS:     934235  HIT:     231512  MISS:     702723
L2C RFO       ACCESS:     190169  HIT:      77277  MISS:     112892
L2C PREFETCH  ACCESS:          0  HIT:          0  MISS:          0
L2C WRITEBACK ACCESS:     649608  HIT:     648439  MISS:       1169
L2C PREFETCH  REQUESTED:          0  ISSUED:          0  USEFUL:          0  USELESS:          0
L2C AVERAGE MISS LATENCY: 205.151 cycles
LLC TOTAL     ACCESS:    1343476  HIT:      31525  MISS:    1311951
LLC LOAD      ACCESS:     702721  HIT:      17910  MISS:     684811
LLC RFO       ACCESS:     112885  HIT:       9487  MISS:     103398
LLC PREFETCH  ACCESS:          0  HIT:          0  MISS:          0
LLC WRITEBACK ACCESS:     527870  HIT:       4128  MISS:     523742
LLC PREFETCH  REQUESTED:          0  ISSUED:          0  USEFUL:          0  USELESS:          0
LLC AVERAGE MISS LATENCY: 108.129 cycles
Major fault: 0 Minor fault: 5621

DRAM Statistics
 CHANNEL 0
 RQ ROW_BUFFER_HIT:      18105  ROW_BUFFER_MISS:     769659
 DBUS_CONGESTED:     408667
 WQ ROW_BUFFER_HIT:     237429  ROW_BUFFER_MISS:     290246  FULL:          0

 AVG_CONGESTED_CYCLE: 6

CPU 0 Branch Prediction Accuracy: 91.3731% MPKI: 13.1325 Average ROB Occupancy at Mispredict: 59.4349

Branch types
NOT_BRANCH: 25432910 84.7764%
BRANCH_DIRECT_JUMP: 289665 0.96555%
BRANCH_INDIRECT: 0 0%
BRANCH_CONDITIONAL: 4266048 14.2202%
BRANCH_DIRECT_CALL: 5545 0.0184833%
BRANCH_INDIRECT_CALL: 0 0%
BRANCH_RETURN: 5545 0.0184833%
BRANCH_OTHER: 0 0%

