
*** ChampSim Multicore Out-of-Order Simulator ***

Warmup Instructions: 30000000
Simulation Instructions: 30000000
Number of CPUs: 1
LLC sets: 32
LLC ways: 32
Off-chip DRAM Size: 4096 MB Channels: 1 Width: 64-bit Data Rate: 3200 MT/s

CPU 0 runs ./traces/cadical-med-30K-1463B.champsimtrace.xz
[90723, 18467, 21298, 31076, 41455, 34316, 12069, 3996, 1213, 1254, 132, 0, 1]
[166654, 33104, 46323, 65126, 95252, 70342, 24685, 6415, 1932, 1555, 569, 1, 42]
[240130, 45656, 69929, 99253, 146493, 108960, 38379, 10366, 5241, 2119, 1155, 31, 288]
[311266, 58189, 92423, 134542, 202499, 144179, 49298, 16645, 8642, 2645, 2151, 626, 895]
[377431, 79815, 115345, 168245, 255641, 171675, 64900, 20996, 12460, 3842, 3621, 1075, 4954]
Heartbeat CPU 0 instructions: 10000001 cycles: 3515463 heartbeat IPC: 2.84458 cumulative IPC: 2.84458 (Simulation time: 0 hr 0 min 42 sec) 
[443653, 99030, 137468, 198515, 301635, 202549, 83338, 28930, 17717, 6756, 8175, 2038, 6196]
[512325, 117759, 157417, 229518, 350673, 233039, 103369, 35067, 22362, 8245, 11868, 2125, 8233]
[576529, 140700, 179752, 264014, 402256, 266456, 119047, 39775, 24485, 9224, 12533, 2145, 11084]
[650613, 161238, 207611, 291612, 438134, 297175, 135958, 46832, 28431, 10919, 13989, 2203, 19285]
[717813, 185555, 228597, 323349, 487262, 330555, 153453, 51310, 31009, 12677, 15874, 2424, 20122]
[793683, 214077, 248664, 344445, 520221, 360551, 167419, 58987, 35049, 16123, 20630, 4459, 31692]
Heartbeat CPU 0 instructions: 20000000 cycles: 6986042 heartbeat IPC: 2.88136 cumulative IPC: 2.86285 (Simulation time: 0 hr 1 min 29 sec) 
[866661, 242684, 269278, 367960, 564406, 400882, 185069, 63808, 36908, 17195, 20994, 4462, 31693]
[930974, 266149, 291155, 401262, 616383, 436779, 198117, 68644, 39180, 18333, 21134, 4504, 35386]
[1000712, 287720, 314096, 427367, 657786, 464570, 219301, 72899, 43545, 20461, 21950, 5342, 48251]
[1071620, 312624, 333624, 453456, 701960, 505100, 237697, 78281, 47119, 21942, 22412, 5911, 48254]
[1143614, 335818, 357339, 487101, 744777, 534483, 250762, 83601, 50124, 23547, 22727, 5980, 56127]
[1217759, 359182, 380051, 517676, 782745, 565930, 265253, 89956, 53465, 25245, 23228, 6145, 65365]
Heartbeat CPU 0 instructions: 30000001 cycles: 10449618 heartbeat IPC: 2.88719 cumulative IPC: 2.87092 (Simulation time: 0 hr 2 min 18 sec) 

Warmup complete CPU 0 instructions: 30000001 cycles: 10449618 (Simulation time: 0 hr 2 min 18 sec) 

[1287361, 385029, 401148, 554013, 834743, 598471, 278048, 92643, 54331, 25477, 23267, 6177, 67292]
[1351158, 408542, 420285, 587540, 881577, 630058, 295206, 100723, 60051, 27373, 23707, 6242, 71538]
[1416003, 433379, 440245, 620701, 926528, 661296, 315205, 106489, 62628, 30308, 24163, 6301, 76754]
[1484238, 456513, 459265, 650789, 970651, 693567, 335213, 115345, 66804, 33083, 24960, 6304, 79268]
[1555391, 478766, 484046, 682766, 1015408, 723680, 350106, 121128, 70117, 35665, 25848, 6399, 82680]
[1627246, 501576, 511696, 717279, 1060044, 750902, 365266, 125489, 71674, 37150, 26388, 6414, 86876]
Heartbeat CPU 0 instructions: 40000003 cycles: 49613774 heartbeat IPC: 0.255336 cumulative IPC: 0.255336 (Simulation time: 0 hr 3 min 22 sec) 
[1695490, 527333, 531779, 753468, 1112090, 781216, 381262, 130369, 72532, 38125, 26531, 6418, 87387]
[1773113, 553626, 550573, 791468, 1148752, 807586, 395504, 133304, 76026, 43003, 27386, 6544, 93115]
[1844675, 579733, 567402, 826667, 1193622, 839152, 411833, 136925, 81968, 43806, 27716, 6667, 95834]
[1914834, 606645, 584630, 859592, 1244502, 873388, 427461, 141294, 84235, 44594, 28092, 6670, 96063]
[1985239, 634170, 609175, 894705, 1290133, 903209, 439518, 146272, 87206, 45131, 28557, 6741, 97944]
[2059292, 656729, 638314, 926932, 1337174, 931842, 450429, 149190, 89393, 46136, 29019, 6810, 102740]
Heartbeat CPU 0 instructions: 50000000 cycles: 88783697 heartbeat IPC: 0.255298 cumulative IPC: 0.255317 (Simulation time: 0 hr 4 min 30 sec) 
[2134426, 685079, 658809, 953001, 1374882, 969558, 466252, 155191, 93224, 48002, 29334, 6881, 105361]
[2202875, 707585, 680294, 987937, 1424581, 1004292, 480246, 159743, 95712, 49126, 29664, 6884, 107061]
[2275857, 732206, 706701, 1017761, 1470961, 1036453, 492824, 163554, 97628, 49786, 30117, 7058, 111094]
[2345448, 755831, 726305, 1053003, 1523636, 1071801, 504978, 167363, 99978, 50411, 30690, 7094, 111462]
[2419687, 780060, 751473, 1086503, 1566114, 1108122, 517143, 171558, 102086, 51336, 30986, 7470, 111462]
[2489269, 806590, 770965, 1117732, 1613938, 1143632, 534290, 176215, 104552, 52617, 31240, 7498, 111462]
Heartbeat CPU 0 instructions: 60000000 cycles: 129023625 heartbeat IPC: 0.248509 cumulative IPC: 0.253007 (Simulation time: 0 hr 5 min 27 sec) 
Finished CPU 0 instructions: 30000003 cycles: 118574008 cumulative IPC: 0.253007 (Simulation time: 0 hr 5 min 27 sec) 

ChampSim completed all CPUs

Region of Interest Statistics

CPU 0 cumulative IPC: 0.253007 instructions: 30000003 cycles: 118574008
L1D TOTAL     ACCESS:    8120270  HIT:    7014992  MISS:    1105278
L1D LOAD      ACCESS:    5249120  HIT:    4334882  MISS:     914238
L1D RFO       ACCESS:    2871150  HIT:    2680110  MISS:     191040
L1D PREFETCH  ACCESS:          0  HIT:          0  MISS:          0
L1D WRITEBACK ACCESS:          0  HIT:          0  MISS:          0
L1D PREFETCH  REQUESTED:          0  ISSUED:          0  USEFUL:          0  USELESS:          0
L1D AVERAGE MISS LATENCY: 162.28 cycles
L1I TOTAL     ACCESS:    5210776  HIT:    5210718  MISS:         58
L1I LOAD      ACCESS:    5210776  HIT:    5210718  MISS:         58
L1I RFO       ACCESS:          0  HIT:          0  MISS:          0
L1I PREFETCH  ACCESS:          0  HIT:          0  MISS:          0
L1I WRITEBACK ACCESS:          0  HIT:          0  MISS:          0
L1I PREFETCH  REQUESTED:          0  ISSUED:          0  USEFUL:          0  USELESS:          0
L1I AVERAGE MISS LATENCY: 228.138 cycles
L2C TOTAL     ACCESS:    1733823  HIT:     949017  MISS:     784806
L2C LOAD      ACCESS:     914265  HIT:     240058  MISS:     674207
L2C RFO       ACCESS:     190945  HIT:      81539  MISS:     109406
L2C PREFETCH  ACCESS:          0  HIT:          0  MISS:          0
L2C WRITEBACK ACCESS:     628613  HIT:     627420  MISS:       1193
L2C PREFETCH  REQUESTED:          0  ISSUED:          0  USEFUL:          0  USELESS:          0
L2C AVERAGE MISS LATENCY: 203.908 cycles
LLC TOTAL     ACCESS:    1284714  HIT:      34949  MISS:    1249765
LLC LOAD      ACCESS:     674207  HIT:      19729  MISS:     654478
LLC RFO       ACCESS:     109400  HIT:      10338  MISS:      99062
LLC PREFETCH  ACCESS:          0  HIT:          0  MISS:          0
LLC WRITEBACK ACCESS:     501107  HIT:       4882  MISS:     496225
LLC PREFETCH  REQUESTED:          0  ISSUED:          0  USEFUL:          0  USELESS:          0
LLC AVERAGE MISS LATENCY: 108.313 cycles
Major fault: 0 Minor fault: 5479

DRAM Statistics
 CHANNEL 0
 RQ ROW_BUFFER_HIT:      23271  ROW_BUFFER_MISS:     729867
 DBUS_CONGESTED:     389252
 WQ ROW_BUFFER_HIT:     233421  ROW_BUFFER_MISS:     267415  FULL:          0

 AVG_CONGESTED_CYCLE: 6

CPU 0 Branch Prediction Accuracy: 91.3061% MPKI: 13.1342 Average ROB Occupancy at Mispredict: 57.9494

Branch types
NOT_BRANCH: 25467621 84.8921%
BRANCH_DIRECT_JUMP: 291511 0.971703%
BRANCH_INDIRECT: 0 0%
BRANCH_CONDITIONAL: 4226891 14.0896%
BRANCH_DIRECT_CALL: 6892 0.0229733%
BRANCH_INDIRECT_CALL: 0 0%
BRANCH_RETURN: 6892 0.0229733%
BRANCH_OTHER: 0 0%

