
*** ChampSim Multicore Out-of-Order Simulator ***

Warmup Instructions: 50000000
Simulation Instructions: 50000000
Number of CPUs: 1
LLC sets: 32
LLC ways: 32
Off-chip DRAM Size: 4096 MB Channels: 1 Width: 64-bit Data Rate: 3200 MT/s

CPU 0 runs ./traces/cadical-med-30K-831B.champsimtrace.xz
[97563, 15179, 20001, 39839, 47395, 25632, 8440, 1347, 339, 222, 43, 0, 0]
[197990, 33456, 34911, 69780, 81212, 54422, 26542, 10165, 1754, 1495, 272, 0, 1]
[285034, 49078, 52667, 107674, 125601, 86183, 41057, 14557, 3354, 2445, 346, 3, 1]
[375729, 66821, 66858, 144933, 175655, 116683, 52320, 17403, 4041, 3009, 544, 3, 1]
[456481, 84681, 80786, 179139, 230774, 147158, 70336, 20589, 5401, 3442, 1207, 4, 2]
Heartbeat CPU 0 instructions: 10000000 cycles: 3455638 heartbeat IPC: 2.89382 cumulative IPC: 2.89382 (Simulation time: 0 hr 0 min 42 sec) 
[535972, 106045, 95367, 218295, 284163, 174648, 82683, 24847, 8068, 3566, 1659, 685, 2]
[618969, 124672, 109638, 253194, 333734, 201181, 99579, 29167, 10772, 4672, 2340, 2316, 1766]
[699429, 145426, 121891, 283602, 376055, 233277, 122546, 32838, 13751, 7031, 3063, 3099, 5992]
[781768, 167678, 132679, 314534, 424333, 263663, 141126, 37430, 15813, 7631, 3263, 3121, 10961]
[864259, 194897, 142799, 346904, 465839, 296715, 159833, 42953, 18647, 7869, 3383, 3554, 12348]
[947602, 222521, 150974, 374173, 513644, 327259, 178707, 48016, 20563, 8981, 3676, 3769, 16115]
Heartbeat CPU 0 instructions: 20000002 cycles: 6891548 heartbeat IPC: 2.91044 cumulative IPC: 2.90211 (Simulation time: 0 hr 1 min 27 sec) 
[1027642, 248332, 161755, 405903, 559921, 359777, 196362, 52558, 22165, 10256, 3780, 3864, 19685]
[1105946, 272860, 175128, 439615, 605898, 391928, 214092, 58400, 24002, 10732, 3901, 3867, 21631]
[1182288, 298494, 191031, 478841, 658634, 417418, 226252, 60631, 24974, 12052, 4529, 3901, 24955]
[1259292, 324128, 205034, 512739, 701422, 448378, 243555, 66408, 28451, 13568, 4720, 4067, 28238]
[1334340, 348250, 220703, 550034, 749900, 479755, 259450, 68851, 30139, 13875, 5503, 5271, 29929]
[1411525, 384579, 238974, 580438, 784534, 508474, 272654, 72000, 32779, 14849, 6288, 7739, 37167]
Heartbeat CPU 0 instructions: 30000000 cycles: 10334348 heartbeat IPC: 2.90461 cumulative IPC: 2.90294 (Simulation time: 0 hr 2 min 14 sec) 
[1481167, 412956, 252466, 618287, 830025, 539313, 287961, 78158, 35591, 15211, 7279, 8142, 41444]
[1548790, 442589, 266541, 654018, 882190, 568292, 303433, 81165, 37348, 15946, 9407, 8306, 45975]
[1604667, 481937, 289633, 683181, 929417, 603650, 316787, 86020, 39985, 16955, 9604, 8351, 49813]
[1667222, 504467, 306638, 719148, 972020, 635543, 339080, 96443, 44759, 19079, 10542, 8994, 52065]
[1731483, 533802, 322128, 752973, 1017317, 670020, 354621, 103337, 49695, 21088, 11263, 9399, 54874]
[1798431, 562836, 340847, 791541, 1071155, 703603, 365874, 105535, 50348, 21305, 11271, 9429, 55825]
Heartbeat CPU 0 instructions: 40000002 cycles: 13795371 heartbeat IPC: 2.88932 cumulative IPC: 2.89952 (Simulation time: 0 hr 3 min 1 sec) 
[1861897, 593587, 360313, 833273, 1128403, 733298, 375671, 107181, 51234, 21445, 11294, 9429, 56975]
[1938061, 621623, 375663, 870901, 1174427, 759216, 389315, 112155, 52666, 22990, 11503, 9456, 62024]
[2003506, 650283, 391166, 909218, 1224462, 793627, 405782, 116268, 53644, 23620, 12054, 9675, 62695]
[2070010, 683430, 409663, 940517, 1259430, 821697, 424859, 123738, 57584, 25147, 13006, 9809, 73110]
[2135770, 720017, 430297, 973676, 1305659, 858283, 439402, 125723, 57941, 25196, 13107, 9819, 73110]
[2207516, 754815, 447729, 1009362, 1346326, 884772, 452071, 127908, 59409, 25561, 13708, 10147, 84676]
Heartbeat CPU 0 instructions: 50000000 cycles: 17265090 heartbeat IPC: 2.88208 cumulative IPC: 2.89602 (Simulation time: 0 hr 3 min 48 sec) 

Warmup complete CPU 0 instructions: 50000004 cycles: 17265091 (Simulation time: 0 hr 3 min 48 sec) 

[2277471, 778492, 472210, 1043835, 1391649, 920128, 467202, 131140, 61381, 26534, 14364, 10213, 85381]
[2349190, 798416, 496004, 1085129, 1449244, 951370, 476378, 132024, 61694, 26577, 14368, 10215, 85391]
[2424726, 824867, 518517, 1120453, 1483751, 975998, 489631, 138042, 64153, 28384, 16458, 11015, 96005]
[2503327, 844593, 540544, 1157352, 1530226, 1006461, 506525, 141161, 64496, 28669, 16835, 11052, 96759]
[2579866, 865306, 567181, 1190865, 1569522, 1033677, 524842, 145214, 65890, 29863, 17557, 11365, 102852]
[2652427, 886543, 589412, 1227269, 1621832, 1064419, 539364, 148212, 67472, 30278, 17774, 11373, 103625]
Heartbeat CPU 0 instructions: 60000001 cycles: 58007951 heartbeat IPC: 0.245442 cumulative IPC: 0.245442 (Simulation time: 0 hr 4 min 48 sec) 
[2728715, 915909, 608057, 1262268, 1666656, 1092220, 552004, 151265, 69680, 30729, 18252, 11509, 108736]
[2797555, 938873, 627657, 1300183, 1720710, 1126997, 564829, 154157, 70783, 30931, 18849, 11522, 108954]
[2871236, 968960, 645431, 1333455, 1762226, 1159173, 581230, 158212, 72436, 31682, 19337, 11755, 112867]
[2945714, 993614, 664834, 1371567, 1815800, 1189597, 592201, 159915, 73078, 32120, 19480, 11759, 114321]
[3019740, 1015821, 689035, 1408641, 1869184, 1219304, 601185, 161502, 74611, 32785, 19979, 12491, 115722]
[3094980, 1038014, 708124, 1446677, 1912863, 1249353, 616509, 165217, 75953, 34547, 20094, 14388, 119281]
Heartbeat CPU 0 instructions: 70000001 cycles: 100117019 heartbeat IPC: 0.237479 cumulative IPC: 0.241394 (Simulation time: 0 hr 5 min 50 sec) 
[3175283, 1058825, 731040, 1483035, 1962183, 1275217, 627789, 168516, 77650, 34811, 20554, 14402, 122695]
[3245577, 1086873, 753319, 1511879, 2004512, 1306404, 644981, 173542, 82054, 36268, 20848, 14627, 127116]
[3320750, 1109720, 770831, 1543754, 2049137, 1340315, 664427, 177622, 83749, 37953, 22165, 14855, 128722]
[3389603, 1131709, 790980, 1585749, 2105182, 1372564, 675554, 179100, 84440, 38384, 22491, 14915, 129329]
[3467127, 1152209, 814305, 1617399, 2150677, 1402282, 688072, 183366, 86436, 40149, 23083, 15213, 135682]
[3541846, 1172605, 836731, 1656427, 2199932, 1432688, 700695, 186135, 87896, 40471, 23333, 15407, 137834]
Heartbeat CPU 0 instructions: 80000000 cycles: 140241343 heartbeat IPC: 0.249225 cumulative IPC: 0.24395 (Simulation time: 0 hr 6 min 51 sec) 
[3615904, 1195421, 855364, 1692301, 2241710, 1464453, 717922, 192607, 90308, 41660, 24610, 15450, 140290]
[3690457, 1219428, 876485, 1733795, 2286046, 1494290, 732938, 195506, 92445, 41993, 24874, 15452, 140291]
[3764985, 1242415, 896940, 1773634, 2335148, 1523157, 746368, 198342, 94133, 43839, 25050, 15640, 140349]
[3843398, 1265620, 913710, 1806254, 2378690, 1556575, 766223, 201354, 96875, 45557, 25529, 15865, 140350]
[3917873, 1285182, 932230, 1839639, 2427862, 1592254, 784103, 205316, 99218, 46430, 25652, 15891, 140350]
Heartbeat CPU 0 instructions: 90000002 cycles: 176498160 heartbeat IPC: 0.27581 cumulative IPC: 0.251204 (Simulation time: 0 hr 7 min 47 sec) 
[3997476, 1303795, 950197, 1871091, 2474520, 1623016, 807255, 210239, 101605, 46577, 25862, 16016, 140351]
[4069902, 1324428, 969359, 1907928, 2511281, 1654434, 829573, 217495, 108537, 48162, 26436, 16097, 140368]
[4146168, 1342933, 989374, 1942120, 2555905, 1686486, 850598, 222709, 111139, 49252, 26789, 16130, 140397]
[4220447, 1361069, 1010310, 1981063, 2609788, 1717150, 865056, 225521, 112146, 49922, 26950, 16159, 140419]
[4300881, 1379330, 1027252, 2009843, 2648612, 1746640, 889982, 232734, 115016, 51688, 29367, 20136, 140519]
[4380125, 1397215, 1051118, 2046943, 2688400, 1774076, 908479, 237300, 116465, 53534, 33395, 20240, 140710]
*** Reached end of trace for Core: 0 Repeating trace: ./traces/cadical-med-30K-831B.champsimtrace.xz
Heartbeat CPU 0 instructions: 100000001 cycles: 212372563 heartbeat IPC: 0.27875 cumulative IPC: 0.256269 (Simulation time: 0 hr 8 min 38 sec) 
Finished CPU 0 instructions: 50000001 cycles: 195107473 cumulative IPC: 0.256269 (Simulation time: 0 hr 8 min 38 sec) 

ChampSim completed all CPUs

Region of Interest Statistics

CPU 0 cumulative IPC: 0.256269 instructions: 50000001 cycles: 195107473
L1D TOTAL     ACCESS:   13645142  HIT:   11762612  MISS:    1882530
L1D LOAD      ACCESS:    8822983  HIT:    7274541  MISS:    1548442
L1D RFO       ACCESS:    4822159  HIT:    4488071  MISS:     334088
L1D PREFETCH  ACCESS:          0  HIT:          0  MISS:          0
L1D WRITEBACK ACCESS:          0  HIT:          0  MISS:          0
L1D PREFETCH  REQUESTED:          0  ISSUED:          0  USEFUL:          0  USELESS:          0
L1D AVERAGE MISS LATENCY: 160.183 cycles
L1I TOTAL     ACCESS:    8690795  HIT:    8690610  MISS:        185
L1I LOAD      ACCESS:    8690795  HIT:    8690610  MISS:        185
L1I RFO       ACCESS:          0  HIT:          0  MISS:          0
L1I PREFETCH  ACCESS:          0  HIT:          0  MISS:          0
L1I WRITEBACK ACCESS:          0  HIT:          0  MISS:          0
L1I PREFETCH  REQUESTED:          0  ISSUED:          0  USEFUL:          0  USELESS:          0
L1I AVERAGE MISS LATENCY: 226.481 cycles
L2C TOTAL     ACCESS:    2928230  HIT:    1618710  MISS:    1309520
L2C LOAD      ACCESS:    1548580  HIT:     434199  MISS:    1114381
L2C RFO       ACCESS:     333926  HIT:     141150  MISS:     192776
L2C PREFETCH  ACCESS:          0  HIT:          0  MISS:          0
L2C WRITEBACK ACCESS:    1045724  HIT:    1043361  MISS:       2363
L2C PREFETCH  REQUESTED:          0  ISSUED:          0  USEFUL:          0  USELESS:          0
L2C AVERAGE MISS LATENCY: 205.705 cycles
LLC TOTAL     ACCESS:    2130296  HIT:      61006  MISS:    2069290
LLC LOAD      ACCESS:    1114377  HIT:      31733  MISS:    1082644
LLC RFO       ACCESS:     192771  HIT:      18337  MISS:     174434
LLC PREFETCH  ACCESS:          0  HIT:          0  MISS:          0
LLC WRITEBACK ACCESS:     823148  HIT:      10936  MISS:     812212
LLC PREFETCH  REQUESTED:          0  ISSUED:          0  USEFUL:          0  USELESS:          0
LLC AVERAGE MISS LATENCY: 110.393 cycles
Major fault: 0 Minor fault: 4495

DRAM Statistics
 CHANNEL 0
 RQ ROW_BUFFER_HIT:      28383  ROW_BUFFER_MISS:    1227735
 DBUS_CONGESTED:     655328
 WQ ROW_BUFFER_HIT:     406385  ROW_BUFFER_MISS:     416016  FULL:          0

 AVG_CONGESTED_CYCLE: 6

CPU 0 Branch Prediction Accuracy: 91.3796% MPKI: 12.9778 Average ROB Occupancy at Mispredict: 58.9532

Branch types
NOT_BRANCH: 42472289 84.9446%
BRANCH_DIRECT_JUMP: 498645 0.99729%
BRANCH_INDIRECT: 0 0%
BRANCH_CONDITIONAL: 7006879 14.0138%
BRANCH_DIRECT_CALL: 10935 0.02187%
BRANCH_INDIRECT_CALL: 0 0%
BRANCH_RETURN: 10935 0.02187%
BRANCH_OTHER: 0 0%

