
*** ChampSim Multicore Out-of-Order Simulator ***

Warmup Instructions: 30000000
Simulation Instructions: 30000000
Number of CPUs: 1
LLC sets: 32
LLC ways: 32
Off-chip DRAM Size: 4096 MB Channels: 1 Width: 64-bit Data Rate: 3200 MT/s

CPU 0 runs ./traces/cadical-med-30K-137B.champsimtrace.xz
[85049, 11250, 23709, 29981, 31980, 37015, 24910, 8095, 2821, 912, 205, 55, 18]
[163176, 18238, 41238, 57442, 68192, 78619, 54338, 20774, 5207, 3090, 1235, 344, 107]
[241514, 25860, 57349, 86766, 106658, 118854, 85497, 31267, 6833, 4311, 2070, 703, 318]
[319054, 34266, 74415, 113129, 140602, 161098, 120086, 42662, 8855, 5341, 2939, 1062, 491]
[394967, 42236, 91576, 140169, 174447, 204292, 155166, 54073, 10859, 6513, 3672, 1391, 639]
[471307, 49910, 105536, 168771, 207802, 250768, 189218, 65071, 12661, 7729, 4638, 1783, 806]
[548284, 57069, 119905, 195819, 239745, 299864, 224265, 74294, 14559, 9603, 5432, 2143, 1018]
[623886, 63223, 134729, 225184, 271994, 345065, 262903, 83505, 16494, 10937, 6297, 2567, 1216]
[702311, 68438, 149482, 254118, 305761, 389792, 299850, 91909, 18882, 11988, 7131, 2940, 1398]
Heartbeat CPU 0 instructions: 10000002 cycles: 3052575 heartbeat IPC: 3.27592 cumulative IPC: 3.27592 (Simulation time: 0 hr 2 min 7 sec) 
[781460, 73825, 163293, 284557, 339741, 433826, 338411, 97249, 21723, 13130, 7955, 3306, 1524]
[856109, 78746, 177126, 315471, 375716, 476548, 379515, 102817, 25188, 14447, 8903, 3689, 1725]
[932046, 84093, 190731, 345819, 409055, 519339, 420868, 109716, 28986, 15668, 9758, 4019, 1902]
[1003341, 88925, 204261, 375759, 443515, 567767, 459475, 118299, 32513, 16963, 10664, 4380, 2138]
[1073331, 93855, 217822, 405615, 476447, 616896, 501518, 126255, 34910, 18358, 11654, 4862, 2477]
[1147629, 98892, 230977, 434332, 509874, 663016, 541744, 136313, 36863, 19633, 12711, 5292, 2724]
[1222710, 104059, 243363, 462115, 545816, 707974, 579808, 146651, 39483, 21085, 14292, 5700, 2944]
[1299924, 108981, 256001, 491022, 581839, 753561, 615060, 155960, 42777, 22174, 15527, 6006, 3168]
[1374195, 113908, 268978, 525807, 615753, 798204, 652232, 165066, 44558, 23350, 16308, 6308, 3333]
Heartbeat CPU 0 instructions: 20000001 cycles: 6121246 heartbeat IPC: 3.25874 cumulative IPC: 3.26731 (Simulation time: 0 hr 4 min 2 sec) 
[1451063, 118873, 281855, 559261, 648663, 843306, 689791, 172477, 46848, 24559, 17098, 6658, 3548]
[1530757, 123376, 295855, 590702, 680777, 887728, 726554, 180199, 49712, 25658, 17850, 7037, 3795]
[1608322, 128143, 308696, 620107, 711556, 934397, 766501, 189277, 51770, 26925, 18907, 7374, 4025]
[1681583, 132793, 321884, 649476, 742492, 981270, 805884, 200765, 54909, 28897, 19881, 7860, 4306]
[1756753, 137090, 335206, 679837, 775263, 1027827, 844155, 210742, 56973, 30476, 20963, 8197, 4518]
[1831610, 141976, 347840, 710736, 805594, 1074320, 884210, 220841, 59833, 31607, 22138, 8567, 4728]
[1908827, 146736, 360532, 739090, 837627, 1119518, 925152, 229383, 63226, 32656, 23446, 8869, 4938]
[1988041, 151683, 372441, 769425, 871967, 1163747, 963125, 236821, 66303, 33578, 24539, 9187, 5143]
[2068237, 156306, 384178, 796471, 906734, 1209755, 1002228, 244268, 68704, 34490, 25742, 9529, 5358]
Heartbeat CPU 0 instructions: 30000001 cycles: 9175527 heartbeat IPC: 3.27409 cumulative IPC: 3.26957 (Simulation time: 0 hr 5 min 52 sec) 

Warmup complete CPU 0 instructions: 30000001 cycles: 9175527 (Simulation time: 0 hr 5 min 52 sec) 

[2151712, 161217, 396013, 825316, 943189, 1254005, 1037156, 251604, 70598, 35444, 26423, 9820, 5503]
[2231994, 166128, 408970, 852876, 980266, 1298945, 1073359, 259532, 72374, 36574, 27137, 10126, 5719]
[2308233, 171198, 421107, 881198, 1019162, 1343962, 1110306, 267736, 74194, 38484, 27988, 10515, 5917]
[2385159, 176388, 433248, 908280, 1064450, 1390667, 1141504, 274021, 76222, 40154, 28896, 10901, 6110]
[2460935, 181398, 445477, 934977, 1109443, 1434110, 1178356, 279602, 79169, 41208, 29759, 11274, 6292]
[2540831, 186876, 457076, 962024, 1151384, 1477839, 1215004, 285258, 80853, 42172, 30566, 11641, 6476]
[2620181, 192045, 468835, 990117, 1192334, 1526349, 1248208, 290467, 82525, 43026, 31307, 11963, 6643]
[2698341, 197386, 480244, 1017331, 1228236, 1580478, 1282395, 295856, 84310, 44301, 32027, 12265, 6830]
[2771977, 202178, 492099, 1044917, 1267763, 1631656, 1316157, 303485, 87536, 45651, 32891, 12629, 7061]
Heartbeat CPU 0 instructions: 40000000 cycles: 23947895 heartbeat IPC: 0.676939 cumulative IPC: 0.676939 (Simulation time: 0 hr 7 min 40 sec) 
[2849084, 207149, 503856, 1071377, 1313420, 1674185, 1349950, 311519, 90144, 46884, 34144, 12994, 7294]
[2927383, 212340, 515329, 1097715, 1355805, 1719548, 1383172, 318300, 93978, 47991, 35527, 13364, 7548]
[3002885, 216651, 527169, 1126582, 1396567, 1770156, 1413430, 325969, 97414, 49139, 36601, 13663, 7774]
[3082322, 221644, 538724, 1154295, 1433353, 1814433, 1452359, 333221, 100261, 50157, 37349, 13959, 7923]
[3160519, 226656, 550098, 1182103, 1471086, 1856305, 1492768, 340921, 103791, 51350, 38098, 14229, 8076]
[3240542, 231700, 561125, 1210566, 1507097, 1901894, 1530012, 348472, 106309, 52805, 38758, 14478, 8242]
[3320706, 236388, 572435, 1239850, 1545582, 1946097, 1567403, 354564, 108562, 53759, 39479, 14723, 8452]
[3397417, 240957, 584184, 1269594, 1585591, 1989085, 1605582, 360675, 111399, 55524, 40254, 15019, 8719]
[3474269, 245507, 595913, 1296163, 1626980, 2031136, 1644570, 367919, 114461, 57843, 41052, 15298, 8889]
Heartbeat CPU 0 instructions: 50000000 cycles: 38732032 heartbeat IPC: 0.676401 cumulative IPC: 0.67667 (Simulation time: 0 hr 9 min 29 sec) 
[3548589, 250243, 607796, 1325136, 1673638, 2073450, 1676248, 377484, 117529, 59287, 41865, 15635, 9100]
[3623142, 255018, 619570, 1352430, 1719299, 2119921, 1705446, 387068, 121413, 60350, 43092, 15963, 9288]
[3699637, 259886, 632025, 1379582, 1758097, 2170315, 1736173, 396006, 125061, 61371, 44084, 16286, 9477]
[3777743, 264584, 644639, 1404343, 1801743, 2212879, 1771530, 404654, 128345, 62394, 44899, 16588, 9659]
[3851945, 269402, 655863, 1430801, 1843446, 2262593, 1805099, 412438, 131811, 64235, 45620, 16894, 9853]
[3930496, 274352, 667135, 1456580, 1880166, 2310953, 1841746, 420278, 133970, 66758, 46332, 17203, 10031]
[4006366, 278845, 678768, 1482073, 1927807, 2349986, 1877671, 429895, 137436, 68298, 47064, 17520, 10271]
[4083173, 283157, 690792, 1508768, 1975699, 2390066, 1912915, 437192, 140506, 69505, 47818, 17925, 10484]
[4160966, 287778, 702747, 1535918, 2021492, 2431739, 1948208, 444155, 142674, 70735, 48619, 18296, 10673]
Heartbeat CPU 0 instructions: 60000000 cycles: 53758056 heartbeat IPC: 0.665512 cumulative IPC: 0.672909 (Simulation time: 0 hr 10 min 20 sec) 
Finished CPU 0 instructions: 30000000 cycles: 44582539 cumulative IPC: 0.672909 (Simulation time: 0 hr 10 min 20 sec) 

ChampSim completed all CPUs

Region of Interest Statistics

CPU 0 cumulative IPC: 0.672909 instructions: 30000000 cycles: 44582539
L1D TOTAL     ACCESS:    5651266  HIT:    4970205  MISS:     681061
L1D LOAD      ACCESS:    3195440  HIT:    2522249  MISS:     673191
L1D RFO       ACCESS:    2455826  HIT:    2447956  MISS:       7870
L1D PREFETCH  ACCESS:          0  HIT:          0  MISS:          0
L1D WRITEBACK ACCESS:          0  HIT:          0  MISS:          0
L1D PREFETCH  REQUESTED:          0  ISSUED:          0  USEFUL:          0  USELESS:          0
L1D AVERAGE MISS LATENCY: 75.9886 cycles
L1I TOTAL     ACCESS:    5420507  HIT:    5420507  MISS:          0
L1I LOAD      ACCESS:    5420507  HIT:    5420507  MISS:          0
L1I RFO       ACCESS:          0  HIT:          0  MISS:          0
L1I PREFETCH  ACCESS:          0  HIT:          0  MISS:          0
L1I WRITEBACK ACCESS:          0  HIT:          0  MISS:          0
L1I PREFETCH  REQUESTED:          0  ISSUED:          0  USEFUL:          0  USELESS:          0
L1I AVERAGE MISS LATENCY: -nan cycles
L2C TOTAL     ACCESS:     915561  HIT:     664426  MISS:     251135
L2C LOAD      ACCESS:     673117  HIT:     427793  MISS:     245324
L2C RFO       ACCESS:       7870  HIT:       3387  MISS:       4483
L2C PREFETCH  ACCESS:          0  HIT:          0  MISS:          0
L2C WRITEBACK ACCESS:     234574  HIT:     233246  MISS:       1328
L2C PREFETCH  REQUESTED:          0  ISSUED:          0  USEFUL:          0  USELESS:          0
L2C AVERAGE MISS LATENCY: 165.229 cycles
LLC TOTAL     ACCESS:     347855  HIT:      55725  MISS:     292130
LLC LOAD      ACCESS:     245324  HIT:      37803  MISS:     207521
LLC RFO       ACCESS:       4483  HIT:        374  MISS:       4109
LLC PREFETCH  ACCESS:          0  HIT:          0  MISS:          0
LLC WRITEBACK ACCESS:      98048  HIT:      17548  MISS:      80500
LLC PREFETCH  REQUESTED:          0  ISSUED:          0  USEFUL:          0  USELESS:          0
LLC AVERAGE MISS LATENCY: 116.387 cycles
Major fault: 0 Minor fault: 1120

DRAM Statistics
 CHANNEL 0
 RQ ROW_BUFFER_HIT:      30904  ROW_BUFFER_MISS:     180466
 DBUS_CONGESTED:      73822
 WQ ROW_BUFFER_HIT:      53966  ROW_BUFFER_MISS:      38530  FULL:          0

 AVG_CONGESTED_CYCLE: 5

CPU 0 Branch Prediction Accuracy: 97.238% MPKI: 6.46477 Average ROB Occupancy at Mispredict: 42.7713

Branch types
NOT_BRANCH: 22977833 76.5928%
BRANCH_DIRECT_JUMP: 691968 2.30656%
BRANCH_INDIRECT: 0 0%
BRANCH_CONDITIONAL: 6265651 20.8855%
BRANCH_DIRECT_CALL: 32101 0.107003%
BRANCH_INDIRECT_CALL: 0 0%
BRANCH_RETURN: 32102 0.107007%
BRANCH_OTHER: 0 0%

