
*** ChampSim Multicore Out-of-Order Simulator ***

Warmup Instructions: 15000000
Simulation Instructions: 15000000
Number of CPUs: 1
LLC sets: 32
LLC ways: 32
Off-chip DRAM Size: 4096 MB Channels: 1 Width: 64-bit Data Rate: 3200 MT/s

CPU 0 runs ./traces/cadical-med-30K-137B.champsimtrace.xz
[84357, 12739, 21057, 31869, 34688, 35485, 23720, 7890, 2801, 1103, 233, 49, 9]
[162582, 19718, 40705, 57823, 71776, 74307, 54828, 19612, 5750, 2985, 1479, 304, 131]
[241173, 25110, 61128, 85066, 109896, 116135, 85880, 28217, 7797, 4135, 2430, 728, 305]
[319417, 31942, 79624, 112050, 147927, 156020, 116854, 40320, 9649, 5247, 3433, 1038, 479]
[396137, 39270, 96660, 139353, 186208, 196747, 149228, 51745, 11597, 6515, 4579, 1326, 635]
[473348, 45982, 112694, 165628, 225869, 236435, 182202, 63534, 13508, 8189, 6118, 1668, 825]
[550745, 53932, 127338, 190302, 262295, 280315, 215822, 76094, 15393, 9733, 6966, 2043, 1022]
[626737, 61801, 142680, 215559, 300994, 326568, 249018, 84102, 18078, 10989, 7863, 2341, 1270]
[705546, 68037, 157722, 240401, 339140, 376781, 279319, 90458, 21576, 12103, 8778, 2672, 1467]
Heartbeat CPU 0 instructions: 10000002 cycles: 3052654 heartbeat IPC: 3.27584 cumulative IPC: 3.27584 (Simulation time: 0 hr 2 min 57 sec) 
[785086, 75202, 171436, 266044, 380443, 420886, 313533, 95882, 23885, 13313, 9635, 3006, 1649]
[860210, 82477, 185285, 291422, 423324, 466912, 347316, 101086, 27232, 15000, 10581, 3298, 1857]
[936567, 90282, 198339, 317220, 459268, 513330, 385155, 108006, 30482, 16230, 11432, 3620, 2069]
[1008246, 97432, 211625, 342993, 496609, 556166, 428416, 115185, 35180, 17526, 12364, 3963, 2295]

Warmup complete CPU 0 instructions: 15000002 cycles: 4590885 (Simulation time: 0 hr 4 min 18 sec) 

[1078643, 104900, 225067, 367424, 533971, 598240, 472893, 124264, 39289, 18912, 13397, 4375, 2625]
[1153268, 112213, 238154, 392286, 577180, 640874, 508804, 133444, 41515, 20150, 14471, 4767, 2874]
[1228781, 119914, 250888, 416582, 620035, 683404, 544069, 142973, 43734, 21379, 15960, 5161, 3120]
[1306405, 126966, 263626, 441650, 663696, 728613, 577523, 148534, 46922, 22440, 16766, 5493, 3366]
[1381026, 135001, 276672, 470176, 707784, 774218, 609642, 153526, 49510, 23510, 17572, 5822, 3541]
Heartbeat CPU 0 instructions: 20000003 cycles: 11993586 heartbeat IPC: 1.11845 cumulative IPC: 0.675429 (Simulation time: 0 hr 5 min 40 sec) 
[1458238, 142818, 289147, 499017, 747915, 819644, 641178, 160536, 52471, 24717, 18404, 6144, 3771]
[1538284, 149330, 301930, 527302, 786966, 862110, 673573, 168840, 56079, 25817, 19348, 6437, 3984]
[1616133, 156476, 313137, 555282, 827153, 905603, 706799, 178501, 58481, 27021, 20550, 6701, 4163]
[1689407, 163918, 324987, 583098, 869279, 950160, 739628, 188311, 61202, 28851, 21626, 7076, 4457]
[1764506, 171375, 336870, 609533, 911904, 995390, 771504, 197456, 63773, 30699, 22907, 7410, 4673]
[1839227, 178177, 348107, 635350, 954775, 1041842, 803786, 206358, 66496, 33082, 24237, 7670, 4893]
[1916400, 184114, 360051, 661148, 996997, 1087103, 838377, 213635, 69886, 34201, 25049, 7916, 5123]
[1995712, 189963, 372293, 688262, 1038505, 1129137, 873794, 221668, 72111, 35308, 25768, 8159, 5320]
[2076007, 195820, 384916, 712324, 1081553, 1172541, 907376, 229134, 74883, 36678, 26806, 8412, 5550]
Heartbeat CPU 0 instructions: 30000001 cycles: 26409983 heartbeat IPC: 0.693654 cumulative IPC: 0.687471 (Simulation time: 0 hr 8 min 7 sec) 
Finished CPU 0 instructions: 15000003 cycles: 21819099 cumulative IPC: 0.687471 (Simulation time: 0 hr 8 min 7 sec) 

ChampSim completed all CPUs

Region of Interest Statistics

CPU 0 cumulative IPC: 0.687471 instructions: 15000003 cycles: 21819099
L1D TOTAL     ACCESS:    2813690  HIT:    2471186  MISS:     342504
L1D LOAD      ACCESS:    1589510  HIT:    1250801  MISS:     338709
L1D RFO       ACCESS:    1224180  HIT:    1220385  MISS:       3795
L1D PREFETCH  ACCESS:          0  HIT:          0  MISS:          0
L1D WRITEBACK ACCESS:          0  HIT:          0  MISS:          0
L1D PREFETCH  REQUESTED:          0  ISSUED:          0  USEFUL:          0  USELESS:          0
L1D AVERAGE MISS LATENCY: 73.7499 cycles
L1I TOTAL     ACCESS:    2720256  HIT:    2720256  MISS:          0
L1I LOAD      ACCESS:    2720256  HIT:    2720256  MISS:          0
L1I RFO       ACCESS:          0  HIT:          0  MISS:          0
L1I PREFETCH  ACCESS:          0  HIT:          0  MISS:          0
L1I WRITEBACK ACCESS:          0  HIT:          0  MISS:          0
L1I PREFETCH  REQUESTED:          0  ISSUED:          0  USEFUL:          0  USELESS:          0
L1I AVERAGE MISS LATENCY: -nan cycles
L2C TOTAL     ACCESS:     458977  HIT:     336367  MISS:     122610
L2C LOAD      ACCESS:     338672  HIT:     218859  MISS:     119813
L2C RFO       ACCESS:       3795  HIT:       1639  MISS:       2156
L2C PREFETCH  ACCESS:          0  HIT:          0  MISS:          0
L2C WRITEBACK ACCESS:     116510  HIT:     115869  MISS:        641
L2C PREFETCH  REQUESTED:          0  ISSUED:          0  USEFUL:          0  USELESS:          0
L2C AVERAGE MISS LATENCY: 163.941 cycles
LLC TOTAL     ACCESS:     169374  HIT:      29537  MISS:     139837
LLC LOAD      ACCESS:     119812  HIT:      19695  MISS:     100117
LLC RFO       ACCESS:       2156  HIT:        181  MISS:       1975
LLC PREFETCH  ACCESS:          0  HIT:          0  MISS:          0
LLC WRITEBACK ACCESS:      47406  HIT:       9661  MISS:      37745
LLC PREFETCH  REQUESTED:          0  ISSUED:          0  USEFUL:          0  USELESS:          0
LLC AVERAGE MISS LATENCY: 117.575 cycles
Major fault: 0 Minor fault: 1032

DRAM Statistics
 CHANNEL 0
 RQ ROW_BUFFER_HIT:      14502  ROW_BUFFER_MISS:      87440
 DBUS_CONGESTED:      34924
 WQ ROW_BUFFER_HIT:      25174  ROW_BUFFER_MISS:      19154  FULL:          0

 AVG_CONGESTED_CYCLE: 5

CPU 0 Branch Prediction Accuracy: 97.4536% MPKI: 5.97273 Average ROB Occupancy at Mispredict: 43.487

Branch types
NOT_BRANCH: 11481447 76.543%
BRANCH_DIRECT_JUMP: 341103 2.27402%
BRANCH_INDIRECT: 0 0%
BRANCH_CONDITIONAL: 3145729 20.9715%
BRANCH_DIRECT_CALL: 15737 0.104913%
BRANCH_INDIRECT_CALL: 0 0%
BRANCH_RETURN: 15737 0.104913%
BRANCH_OTHER: 0 0%

