
*** ChampSim Multicore Out-of-Order Simulator ***

Warmup Instructions: 50000000
Simulation Instructions: 50000000
Number of CPUs: 1
LLC sets: 32
LLC ways: 32
Off-chip DRAM Size: 4096 MB Channels: 1 Width: 64-bit Data Rate: 3200 MT/s

CPU 0 runs ./traces/cadical-med-30K-1246B.champsimtrace.xz
[92934, 15648, 22954, 34254, 40988, 22563, 13267, 9948, 2050, 1091, 146, 81, 76]
[173684, 33614, 44386, 64960, 88838, 55990, 29090, 14707, 3990, 2274, 306, 85, 76]
[252733, 49105, 65883, 103269, 145077, 85927, 41347, 16632, 5085, 2455, 326, 85, 76]
[328937, 66373, 90586, 127808, 199741, 119184, 54683, 20443, 7763, 3403, 896, 4105, 78]
[400945, 83383, 113851, 160515, 255574, 154348, 68834, 24963, 8559, 3830, 1012, 4106, 80]
Heartbeat CPU 0 instructions: 10000000 cycles: 3522274 heartbeat IPC: 2.83908 cumulative IPC: 2.83908 (Simulation time: 0 hr 0 min 43 sec) 
[465586, 100433, 133747, 197521, 314436, 183147, 84886, 28681, 12776, 7274, 1999, 4580, 934]
[541162, 123663, 147531, 229880, 364507, 219909, 98590, 31422, 13828, 8400, 4719, 4632, 3757]
[613937, 145390, 162619, 265191, 413881, 254033, 113728, 36518, 17247, 9874, 6567, 4635, 4380]
[692236, 163908, 182455, 296038, 460737, 282212, 131258, 39176, 17870, 10208, 13152, 4646, 10104]
[761678, 180184, 202598, 328384, 520048, 314734, 149084, 44032, 20204, 11029, 13272, 4649, 10104]
[832604, 196316, 226470, 358706, 574919, 343626, 163458, 48192, 22319, 11776, 17607, 4978, 15029]
Heartbeat CPU 0 instructions: 20000000 cycles: 6997039 heartbeat IPC: 2.87789 cumulative IPC: 2.85835 (Simulation time: 0 hr 1 min 30 sec) 
[913307, 215420, 243839, 386724, 615586, 374487, 182536, 56355, 24236, 12916, 18642, 5066, 22886]
[990316, 232548, 260774, 422217, 657822, 401534, 202787, 62557, 26151, 14024, 19261, 5398, 32611]
[1061408, 253244, 277888, 455443, 709309, 430712, 220420, 70952, 28536, 15388, 20774, 5494, 34432]
[1139799, 271700, 291132, 483330, 756440, 461432, 239912, 77011, 31785, 16215, 21132, 8922, 41190]
[1211973, 291182, 309192, 516514, 816252, 489686, 254262, 80225, 33789, 17142, 22580, 8931, 44272]
[1286789, 307251, 331974, 551408, 868759, 517933, 270615, 83795, 35484, 18541, 23690, 8943, 46818]
Heartbeat CPU 0 instructions: 30000000 cycles: 10493703 heartbeat IPC: 2.85987 cumulative IPC: 2.85886 (Simulation time: 0 hr 2 min 17 sec) 
[1367004, 327053, 352187, 582736, 910224, 545152, 285201, 91423, 38326, 22632, 24177, 9085, 52800]
[1441483, 344323, 369153, 614428, 956128, 578118, 306544, 96396, 43406, 25232, 25021, 9177, 54591]
[1519579, 364014, 384183, 644920, 1004909, 606042, 323472, 102430, 45459, 26493, 25267, 9186, 64046]
[1596736, 383608, 400828, 677697, 1053830, 635661, 341897, 109848, 47119, 27817, 26203, 9341, 65415]
[1676117, 402700, 415753, 706229, 1094708, 665689, 362264, 116522, 51150, 29094, 26991, 9445, 75338]
[1749505, 420127, 434467, 735393, 1136554, 698014, 381425, 123152, 54656, 32678, 28942, 9639, 83448]
Heartbeat CPU 0 instructions: 40000003 cycles: 13942788 heartbeat IPC: 2.89932 cumulative IPC: 2.86887 (Simulation time: 0 hr 3 min 4 sec) 
[1824504, 449164, 450172, 763105, 1180714, 733807, 400803, 127278, 57129, 34188, 29802, 9884, 83450]
[1897757, 472017, 466444, 794980, 1231798, 761554, 417718, 130748, 59448, 35815, 30531, 10004, 91186]
[1968605, 494707, 484466, 829851, 1291895, 789833, 429160, 133490, 60133, 36218, 30694, 10006, 96942]
[2028625, 523077, 502333, 860981, 1351477, 823170, 443600, 137934, 62242, 36831, 30793, 10022, 100915]
[2105741, 549560, 519419, 892631, 1403233, 849000, 455100, 145162, 64515, 37226, 31028, 10035, 105350]
[2169113, 590655, 538105, 916158, 1447330, 885887, 472960, 150276, 67996, 38313, 31523, 10334, 105350]
Heartbeat CPU 0 instructions: 50000000 cycles: 17427624 heartbeat IPC: 2.86957 cumulative IPC: 2.86901 (Simulation time: 0 hr 3 min 51 sec) 

Warmup complete CPU 0 instructions: 50000004 cycles: 17427625 (Simulation time: 0 hr 3 min 51 sec) 

[2240685, 614591, 555244, 951010, 1504681, 917633, 486029, 153773, 69160, 38963, 31695, 10336, 106200]
[2313184, 643750, 572246, 979136, 1552276, 948512, 501460, 162024, 70736, 39565, 32155, 10409, 110547]
[2363273, 677763, 590388, 1010323, 1612267, 982049, 516507, 167489, 74790, 41903, 33535, 10741, 110972]
[2420628, 715868, 607400, 1041262, 1671905, 1011666, 529655, 170762, 76961, 43710, 34369, 10866, 112948]
[2487075, 741086, 621098, 1072270, 1721658, 1043748, 545996, 179132, 80326, 47821, 35730, 11969, 116091]
[2547170, 772980, 637120, 1102160, 1778546, 1072033, 562321, 184438, 85032, 50106, 37000, 12030, 119064]
Heartbeat CPU 0 instructions: 60000002 cycles: 60203496 heartbeat IPC: 0.233777 cumulative IPC: 0.233777 (Simulation time: 0 hr 4 min 54 sec) 
[2607544, 800928, 652679, 1134592, 1840917, 1103535, 577869, 189208, 87158, 50887, 37641, 12057, 120985]
[2674843, 831694, 670334, 1166371, 1898319, 1133736, 590467, 192905, 88471, 51704, 38058, 12128, 122970]
[2739312, 873024, 686938, 1191463, 1942943, 1164219, 605319, 198814, 91192, 54319, 39316, 13343, 127798]
[2800185, 917069, 703033, 1220334, 1992585, 1201166, 620015, 201779, 92329, 54615, 39745, 13347, 127798]
[2838695, 970694, 721439, 1247207, 2050922, 1240525, 633740, 204786, 93859, 55501, 40387, 13743, 128502]
[2890925, 1009740, 740550, 1283082, 2107338, 1270654, 643979, 208017, 98704, 56048, 40711, 14009, 132243]
Heartbeat CPU 0 instructions: 70000002 cycles: 108262478 heartbeat IPC: 0.208078 cumulative IPC: 0.22018 (Simulation time: 0 hr 5 min 59 sec) 
[2935351, 1056368, 759974, 1314669, 2165548, 1306934, 655917, 211822, 100602, 57024, 41206, 14051, 132534]
[2983300, 1094668, 776708, 1346131, 2224648, 1341003, 671197, 216320, 104252, 58488, 42711, 14508, 134066]
[3030594, 1138184, 795736, 1383351, 2289979, 1373865, 679120, 217870, 104831, 58819, 42965, 14508, 134178]
[3075779, 1186096, 814321, 1417379, 2356599, 1408128, 686657, 219172, 105177, 59026, 42979, 14509, 134178]
[3137147, 1222932, 833377, 1453101, 2414029, 1433273, 693263, 221401, 106297, 59640, 48034, 14646, 138860]
[3190265, 1256977, 850792, 1491740, 2480905, 1463896, 703870, 223620, 107143, 59739, 48835, 14647, 139571]
Heartbeat CPU 0 instructions: 80000003 cycles: 156403125 heartbeat IPC: 0.207725 cumulative IPC: 0.215865 (Simulation time: 0 hr 7 min 2 sec) 
[3255963, 1288724, 867232, 1528682, 2530298, 1490509, 718239, 227476, 108746, 60763, 53227, 14935, 143206]
[3315207, 1320524, 884079, 1567672, 2590625, 1520273, 730696, 231104, 110191, 61011, 53231, 14938, 144449]
[3377934, 1352874, 902862, 1609846, 2642690, 1549784, 741602, 232961, 111634, 61497, 53324, 16454, 146538]
[3440832, 1386415, 927043, 1641598, 2680438, 1577235, 760299, 238789, 115526, 62574, 53805, 17749, 153697]
[3501542, 1410526, 943988, 1674415, 2733511, 1612043, 780635, 246105, 119169, 63975, 54564, 17830, 153697]
[3564686, 1436025, 967082, 1716663, 2789099, 1638064, 791001, 247484, 120662, 64006, 55205, 18125, 159898]
Heartbeat CPU 0 instructions: 90000003 cycles: 197707286 heartbeat IPC: 0.242106 cumulative IPC: 0.221877 (Simulation time: 0 hr 8 min 2 sec) 
[3627454, 1469524, 996169, 1743339, 2829389, 1669316, 803126, 252996, 122791, 65492, 56593, 18477, 169334]
[3687757, 1500112, 1012928, 1770972, 2877353, 1706502, 823314, 260849, 126672, 66730, 58583, 18893, 169335]
[3751889, 1533414, 1036388, 1804413, 2922260, 1734004, 836503, 265197, 129237, 68260, 58993, 19272, 176170]
[3817092, 1559077, 1051728, 1837098, 2964958, 1765992, 855514, 271185, 135096, 71502, 60890, 20322, 181546]
[3881170, 1588012, 1072032, 1867788, 3008520, 1800800, 874547, 277459, 139507, 73022, 61717, 20433, 182993]
[3945447, 1611643, 1092056, 1900977, 3061384, 1830181, 890883, 283095, 142898, 74124, 62207, 20628, 188477]
*** Reached end of trace for Core: 0 Repeating trace: ./traces/cadical-med-30K-1246B.champsimtrace.xz
Heartbeat CPU 0 instructions: 100000000 cycles: 238111791 heartbeat IPC: 0.247497 cumulative IPC: 0.226568 (Simulation time: 0 hr 8 min 43 sec) 
Finished CPU 0 instructions: 50000000 cycles: 220684167 cumulative IPC: 0.226568 (Simulation time: 0 hr 8 min 43 sec) 

ChampSim completed all CPUs

Region of Interest Statistics

CPU 0 cumulative IPC: 0.226568 instructions: 50000000 cycles: 220684167
L1D TOTAL     ACCESS:   14106212  HIT:   12225752  MISS:    1880460
L1D LOAD      ACCESS:    9061846  HIT:    7486551  MISS:    1575295
L1D RFO       ACCESS:    5044366  HIT:    4739201  MISS:     305165
L1D PREFETCH  ACCESS:          0  HIT:          0  MISS:          0
L1D WRITEBACK ACCESS:          0  HIT:          0  MISS:          0
L1D PREFETCH  REQUESTED:          0  ISSUED:          0  USEFUL:          0  USELESS:          0
L1D AVERAGE MISS LATENCY: 171.837 cycles
L1I TOTAL     ACCESS:    8576497  HIT:    8576324  MISS:        173
L1I LOAD      ACCESS:    8576497  HIT:    8576324  MISS:        173
L1I RFO       ACCESS:          0  HIT:          0  MISS:          0
L1I PREFETCH  ACCESS:          0  HIT:          0  MISS:          0
L1I WRITEBACK ACCESS:          0  HIT:          0  MISS:          0
L1I PREFETCH  REQUESTED:          0  ISSUED:          0  USEFUL:          0  USELESS:          0
L1I AVERAGE MISS LATENCY: 221.896 cycles
L2C TOTAL     ACCESS:    2982305  HIT:    1572830  MISS:    1409475
L2C LOAD      ACCESS:    1575434  HIT:     358619  MISS:    1216815
L2C RFO       ACCESS:     305045  HIT:     114540  MISS:     190505
L2C PREFETCH  ACCESS:          0  HIT:          0  MISS:          0
L2C WRITEBACK ACCESS:    1101826  HIT:    1099671  MISS:       2155
L2C PREFETCH  REQUESTED:          0  ISSUED:          0  USEFUL:          0  USELESS:          0
L2C AVERAGE MISS LATENCY: 205.644 cycles
LLC TOTAL     ACCESS:    2325486  HIT:      48757  MISS:    2276729
LLC LOAD      ACCESS:    1216812  HIT:      27950  MISS:    1188862
LLC RFO       ACCESS:     190504  HIT:      14382  MISS:     176122
LLC PREFETCH  ACCESS:          0  HIT:          0  MISS:          0
LLC WRITEBACK ACCESS:     918170  HIT:       6425  MISS:     911745
LLC PREFETCH  REQUESTED:          0  ISSUED:          0  USEFUL:          0  USELESS:          0
LLC AVERAGE MISS LATENCY: 107.902 cycles
Major fault: 0 Minor fault: 5881

DRAM Statistics
 CHANNEL 0
 RQ ROW_BUFFER_HIT:      28921  ROW_BUFFER_MISS:    1335392
 DBUS_CONGESTED:     703960
 WQ ROW_BUFFER_HIT:     398386  ROW_BUFFER_MISS:     519430  FULL:          0

 AVG_CONGESTED_CYCLE: 6

CPU 0 Branch Prediction Accuracy: 90.5537% MPKI: 14.5435 Average ROB Occupancy at Mispredict: 54.7131

Branch types
NOT_BRANCH: 42301651 84.6033%
BRANCH_DIRECT_JUMP: 496513 0.993026%
BRANCH_INDIRECT: 0 0%
BRANCH_CONDITIONAL: 7183690 14.3674%
BRANCH_DIRECT_CALL: 8902 0.017804%
BRANCH_INDIRECT_CALL: 0 0%
BRANCH_RETURN: 8902 0.017804%
BRANCH_OTHER: 0 0%

