
*** ChampSim Multicore Out-of-Order Simulator ***

Warmup Instructions: 30000000
Simulation Instructions: 30000000
Number of CPUs: 1
LLC sets: 32
LLC ways: 32
Off-chip DRAM Size: 4096 MB Channels: 1 Width: 64-bit Data Rate: 3200 MT/s

CPU 0 runs ./traces/cadical-med-30K-831B.champsimtrace.xz
[97563, 15179, 20001, 39839, 47395, 25632, 8440, 1347, 339, 222, 43, 0, 0]
[197990, 33456, 34911, 69780, 81212, 54422, 26542, 10165, 1754, 1495, 272, 0, 1]
[285034, 49078, 52667, 107674, 125601, 86183, 41057, 14557, 3354, 2445, 346, 3, 1]
[375729, 66821, 66858, 144933, 175655, 116683, 52320, 17403, 4041, 3009, 544, 3, 1]
[456481, 84681, 80786, 179139, 230774, 147158, 70336, 20589, 5401, 3442, 1207, 4, 2]
Heartbeat CPU 0 instructions: 10000000 cycles: 3455638 heartbeat IPC: 2.89382 cumulative IPC: 2.89382 (Simulation time: 0 hr 0 min 42 sec) 
[535972, 106045, 95367, 218295, 284163, 174648, 82683, 24847, 8068, 3566, 1659, 685, 2]
[618969, 124672, 109638, 253194, 333734, 201181, 99579, 29167, 10772, 4672, 2340, 2316, 1766]
[699429, 145426, 121891, 283602, 376055, 233277, 122546, 32838, 13751, 7031, 3063, 3099, 5992]
[781768, 167678, 132679, 314534, 424333, 263663, 141126, 37430, 15813, 7631, 3263, 3121, 10961]
[864259, 194897, 142799, 346904, 465839, 296715, 159833, 42953, 18647, 7869, 3383, 3554, 12348]
[947602, 222521, 150974, 374173, 513644, 327259, 178707, 48016, 20563, 8981, 3676, 3769, 16115]
Heartbeat CPU 0 instructions: 20000002 cycles: 6891548 heartbeat IPC: 2.91044 cumulative IPC: 2.90211 (Simulation time: 0 hr 1 min 27 sec) 
[1027642, 248332, 161755, 405903, 559921, 359777, 196362, 52558, 22165, 10256, 3780, 3864, 19685]
[1105946, 272860, 175128, 439615, 605898, 391928, 214092, 58400, 24002, 10732, 3901, 3867, 21631]
[1182288, 298494, 191031, 478841, 658634, 417418, 226252, 60631, 24974, 12052, 4529, 3901, 24955]
[1259292, 324128, 205034, 512739, 701422, 448378, 243555, 66408, 28451, 13568, 4720, 4067, 28238]
[1334340, 348250, 220703, 550034, 749900, 479755, 259450, 68851, 30139, 13875, 5503, 5271, 29929]
[1411525, 384579, 238974, 580438, 784534, 508474, 272654, 72000, 32779, 14849, 6288, 7739, 37167]
Heartbeat CPU 0 instructions: 30000000 cycles: 10334348 heartbeat IPC: 2.90461 cumulative IPC: 2.90294 (Simulation time: 0 hr 2 min 16 sec) 

Warmup complete CPU 0 instructions: 30000004 cycles: 10334349 (Simulation time: 0 hr 2 min 16 sec) 

[1481167, 412956, 252466, 618287, 830025, 539313, 287961, 78158, 35591, 15211, 7279, 8142, 41444]
[1548790, 442589, 266541, 654018, 882190, 568292, 303433, 81165, 37348, 15946, 9407, 8306, 45975]
[1604667, 481937, 289633, 683181, 929417, 603650, 316787, 86020, 39985, 16955, 9604, 8351, 49813]
[1667222, 504467, 306638, 719148, 972020, 635543, 339080, 96443, 44759, 19079, 10542, 8994, 52065]
[1731483, 533802, 322128, 752973, 1017317, 670020, 354621, 103337, 49695, 21088, 11263, 9399, 54874]
[1798431, 562836, 340847, 791541, 1071155, 703603, 365874, 105535, 50348, 21305, 11271, 9429, 55825]
Heartbeat CPU 0 instructions: 40000002 cycles: 50016646 heartbeat IPC: 0.252002 cumulative IPC: 0.252001 (Simulation time: 0 hr 3 min 21 sec) 
[1861897, 593587, 360313, 833273, 1128403, 733298, 375671, 107181, 51234, 21445, 11294, 9429, 56975]
[1938061, 621623, 375663, 870901, 1174427, 759216, 389315, 112155, 52666, 22990, 11503, 9456, 62024]
[2003506, 650283, 391166, 909218, 1224462, 793627, 405782, 116268, 53644, 23620, 12054, 9675, 62695]
[2070010, 683430, 409663, 940517, 1259430, 821697, 424859, 123738, 57584, 25147, 13006, 9809, 73110]
[2135770, 720017, 430297, 973676, 1305659, 858283, 439402, 125723, 57941, 25196, 13107, 9819, 73110]
[2207516, 754815, 447729, 1009362, 1346326, 884772, 452071, 127908, 59409, 25561, 13708, 10147, 84676]
Heartbeat CPU 0 instructions: 50000001 cycles: 90406550 heartbeat IPC: 0.247587 cumulative IPC: 0.249775 (Simulation time: 0 hr 4 min 31 sec) 
[2277471, 778492, 472210, 1043835, 1391649, 920128, 467202, 131140, 61381, 26534, 14364, 10213, 85381]
[2349190, 798416, 496004, 1085129, 1449244, 951370, 476378, 132024, 61694, 26577, 14368, 10215, 85391]
[2424726, 824867, 518517, 1120453, 1483751, 975998, 489631, 138042, 64153, 28384, 16458, 11015, 96005]
[2503327, 844593, 540544, 1157352, 1530226, 1006461, 506525, 141161, 64496, 28669, 16835, 11052, 96759]
[2579866, 865306, 567181, 1190865, 1569522, 1033677, 524842, 145214, 65890, 29863, 17557, 11365, 102852]
[2652427, 886543, 589412, 1227269, 1621832, 1064419, 539364, 148212, 67472, 30278, 17774, 11373, 103625]
Heartbeat CPU 0 instructions: 60000001 cycles: 131150556 heartbeat IPC: 0.245435 cumulative IPC: 0.248311 (Simulation time: 0 hr 5 min 31 sec) 
Finished CPU 0 instructions: 30000001 cycles: 120816208 cumulative IPC: 0.248311 (Simulation time: 0 hr 5 min 31 sec) 

ChampSim completed all CPUs

Region of Interest Statistics

CPU 0 cumulative IPC: 0.248311 instructions: 30000001 cycles: 120816208
L1D TOTAL     ACCESS:    8378467  HIT:    7255579  MISS:    1122888
L1D LOAD      ACCESS:    5371923  HIT:    4446253  MISS:     925670
L1D RFO       ACCESS:    3006544  HIT:    2809326  MISS:     197218
L1D PREFETCH  ACCESS:          0  HIT:          0  MISS:          0
L1D WRITEBACK ACCESS:          0  HIT:          0  MISS:          0
L1D PREFETCH  REQUESTED:          0  ISSUED:          0  USEFUL:          0  USELESS:          0
L1D AVERAGE MISS LATENCY: 164.705 cycles
L1I TOTAL     ACCESS:    5195258  HIT:    5195095  MISS:        163
L1I LOAD      ACCESS:    5195258  HIT:    5195095  MISS:        163
L1I RFO       ACCESS:          0  HIT:          0  MISS:          0
L1I PREFETCH  ACCESS:          0  HIT:          0  MISS:          0
L1I WRITEBACK ACCESS:          0  HIT:          0  MISS:          0
L1I PREFETCH  REQUESTED:          0  ISSUED:          0  USEFUL:          0  USELESS:          0
L1I AVERAGE MISS LATENCY: 228.681 cycles
L2C TOTAL     ACCESS:    1762607  HIT:     958992  MISS:     803615
L2C LOAD      ACCESS:     925801  HIT:     242689  MISS:     683112
L2C RFO       ACCESS:     197125  HIT:      78302  MISS:     118823
L2C PREFETCH  ACCESS:          0  HIT:          0  MISS:          0
L2C WRITEBACK ACCESS:     639681  HIT:     638001  MISS:       1680
L2C PREFETCH  REQUESTED:          0  ISSUED:          0  USEFUL:          0  USELESS:          0
L2C AVERAGE MISS LATENCY: 206.12 cycles
LLC TOTAL     ACCESS:    1316269  HIT:      36347  MISS:    1279922
LLC LOAD      ACCESS:     683111  HIT:      19208  MISS:     663903
LLC RFO       ACCESS:     118822  HIT:      10746  MISS:     108076
LLC PREFETCH  ACCESS:          0  HIT:          0  MISS:          0
LLC WRITEBACK ACCESS:     514336  HIT:       6393  MISS:     507943
LLC PREFETCH  REQUESTED:          0  ISSUED:          0  USEFUL:          0  USELESS:          0
LLC AVERAGE MISS LATENCY: 109.799 cycles
Major fault: 0 Minor fault: 4439

DRAM Statistics
 CHANNEL 0
 RQ ROW_BUFFER_HIT:      16395  ROW_BUFFER_MISS:     755002
 DBUS_CONGESTED:     408307
 WQ ROW_BUFFER_HIT:     246340  ROW_BUFFER_MISS:     267792  FULL:          0

 AVG_CONGESTED_CYCLE: 6

CPU 0 Branch Prediction Accuracy: 91.2424% MPKI: 13.2584 Average ROB Occupancy at Mispredict: 57.4157

Branch types
NOT_BRANCH: 25458176 84.8606%
BRANCH_DIRECT_JUMP: 308041 1.0268%
BRANCH_INDIRECT: 0 0%
BRANCH_CONDITIONAL: 4217864 14.0595%
BRANCH_DIRECT_CALL: 7947 0.02649%
BRANCH_INDIRECT_CALL: 0 0%
BRANCH_RETURN: 7947 0.02649%
BRANCH_OTHER: 0 0%

