
*** ChampSim Multicore Out-of-Order Simulator ***

Warmup Instructions: 30000000
Simulation Instructions: 30000000
Number of CPUs: 1
LLC sets: 32
LLC ways: 32
Off-chip DRAM Size: 4096 MB Channels: 1 Width: 64-bit Data Rate: 3200 MT/s

CPU 0 runs ./traces/cadical-low-60K-1186B.champsimtrace.xz
[42373, 5742, 19461, 18968, 32536, 50581, 44755, 20831, 11063, 6380, 2387, 655, 268]
[74093, 11008, 31864, 35473, 61953, 99216, 92562, 48842, 29501, 18955, 4362, 1724, 2447]
[132408, 26637, 48968, 59671, 93653, 135586, 125222, 68866, 40820, 23430, 6896, 3061, 2782]
[188172, 42126, 70858, 85738, 124201, 168279, 151860, 90995, 51964, 29818, 9443, 5821, 4725]
[229085, 49073, 87859, 108914, 153422, 211768, 188941, 115190, 69837, 36186, 12063, 8522, 9140]
[273604, 57416, 103485, 128563, 189306, 257563, 229840, 132771, 83909, 45443, 14071, 9274, 10755]
Heartbeat CPU 0 instructions: 10000001 cycles: 3428085 heartbeat IPC: 2.91708 cumulative IPC: 2.91708 (Simulation time: 0 hr 0 min 39 sec) 
[311996, 64690, 119696, 152363, 215118, 298120, 281573, 156812, 96756, 53976, 18800, 10001, 12099]
[375605, 80390, 139976, 183475, 247710, 325305, 311396, 169571, 105749, 61264, 20168, 10472, 16919]
[407504, 85645, 153201, 204129, 280149, 373140, 361368, 189735, 119481, 72999, 26408, 11728, 18513]
[456550, 96669, 171802, 229449, 311531, 411394, 396535, 213367, 129906, 78102, 29241, 13752, 21702]
[519823, 110791, 194050, 250884, 338129, 438638, 425270, 230287, 139121, 86404, 34413, 16478, 31712]
[573990, 123713, 212348, 278974, 371373, 477615, 464486, 246416, 147327, 89174, 35657, 16698, 34229]
Heartbeat CPU 0 instructions: 20000002 cycles: 6906138 heartbeat IPC: 2.87517 cumulative IPC: 2.89597 (Simulation time: 0 hr 1 min 23 sec) 
[607023, 128976, 226096, 295610, 404961, 528260, 514729, 271107, 159642, 93546, 41468, 17993, 38589]
[647184, 136657, 240805, 318986, 438357, 573855, 557139, 297584, 173025, 98813, 42859, 18549, 40187]
[672200, 138935, 253026, 334898, 464887, 632684, 611455, 328709, 189326, 108409, 44553, 19074, 41844]
[712552, 146414, 269034, 360928, 495639, 668160, 649500, 355384, 204559, 123679, 46448, 20988, 42715]
[758809, 158743, 290281, 394062, 527641, 702003, 681649, 372417, 216199, 133592, 49545, 23655, 43404]
[784646, 162908, 304324, 414008, 559365, 744989, 732672, 401788, 234283, 144691, 53216, 24904, 46206]
[823738, 169807, 323511, 438067, 593312, 781829, 774027, 425080, 248592, 153301, 59058, 25429, 48249]
Heartbeat CPU 0 instructions: 30000000 cycles: 10261183 heartbeat IPC: 2.98059 cumulative IPC: 2.92364 (Simulation time: 0 hr 2 min 10 sec) 

Warmup complete CPU 0 instructions: 30000004 cycles: 10261184 (Simulation time: 0 hr 2 min 10 sec) 

[873262, 186595, 344278, 472754, 620832, 810435, 803835, 445563, 259774, 160947, 63994, 27937, 49794]
[901807, 192343, 360947, 487832, 650657, 852369, 855590, 472416, 275651, 172931, 67832, 29295, 56330]
[960833, 215020, 384547, 506953, 677243, 880010, 888086, 486492, 286603, 179418, 71024, 29937, 65834]
[991948, 221811, 409893, 520915, 711953, 938139, 937384, 506839, 295342, 184664, 71995, 30691, 66426]
[1021726, 227405, 423729, 534879, 739782, 984552, 985521, 535331, 314956, 194725, 74860, 32039, 74495]
[1073621, 244268, 444719, 564583, 769775, 1015927, 1014095, 554637, 328531, 200926, 77713, 33145, 78060]
Heartbeat CPU 0 instructions: 40000001 cycles: 38795594 heartbeat IPC: 0.350454 cumulative IPC: 0.350454 (Simulation time: 0 hr 3 min 11 sec) 
[1102088, 248853, 460220, 578331, 797397, 1070324, 1066965, 578377, 344582, 210770, 81925, 34612, 81556]
[1139265, 257208, 473999, 600430, 824727, 1109703, 1110850, 605650, 364986, 220173, 83532, 35557, 85920]
[1179073, 268257, 491828, 625219, 855056, 1142944, 1147009, 627234, 380748, 227398, 90291, 42013, 90930]
[1255420, 296823, 517324, 655334, 878370, 1162061, 1163211, 642000, 387906, 231705, 96097, 42800, 94949]
[1324716, 311715, 536430, 672041, 921996, 1205413, 1190813, 651327, 392928, 233238, 100206, 43573, 95604]
[1365469, 315352, 543578, 685658, 957618, 1260532, 1242346, 679448, 405963, 236434, 102081, 43590, 97931]
[1404314, 319098, 550020, 697826, 995019, 1316496, 1291818, 705034, 420426, 241830, 104606, 44088, 101425]
Heartbeat CPU 0 instructions: 50000000 cycles: 69304148 heartbeat IPC: 0.327777 cumulative IPC: 0.338736 (Simulation time: 0 hr 4 min 16 sec) 
[1440796, 322897, 556622, 711215, 1027557, 1363370, 1347691, 737026, 438394, 249317, 106580, 44613, 101922]
[1487288, 331560, 569403, 741588, 1059855, 1399651, 1384135, 759226, 452725, 261052, 108863, 45276, 103378]
[1569836, 367719, 600533, 765658, 1080159, 1420854, 1402937, 769465, 458712, 264023, 110427, 46003, 103674]
[1688062, 420160, 640776, 790419, 1090215, 1425310, 1405951, 770480, 460027, 264320, 110598, 46007, 103675]
[1755749, 470138, 691529, 826079, 1110823, 1439385, 1414789, 775000, 462836, 265310, 110679, 46008, 103675]
[1849736, 508795, 733604, 858281, 1127388, 1453404, 1424280, 779116, 465713, 266623, 111337, 46048, 103675]
Heartbeat CPU 0 instructions: 60000002 cycles: 98184678 heartbeat IPC: 0.346254 cumulative IPC: 0.341206 (Simulation time: 0 hr 5 min 18 sec) 
Finished CPU 0 instructions: 30000002 cycles: 87923495 cumulative IPC: 0.341206 (Simulation time: 0 hr 5 min 18 sec) 

ChampSim completed all CPUs

Region of Interest Statistics

CPU 0 cumulative IPC: 0.341206 instructions: 30000002 cycles: 87923495
L1D TOTAL     ACCESS:    6412615  HIT:    5663721  MISS:     748894
L1D LOAD      ACCESS:    4262889  HIT:    3589608  MISS:     673281
L1D RFO       ACCESS:    2149726  HIT:    2074113  MISS:      75613
L1D PREFETCH  ACCESS:          0  HIT:          0  MISS:          0
L1D WRITEBACK ACCESS:          0  HIT:          0  MISS:          0
L1D PREFETCH  REQUESTED:          0  ISSUED:          0  USEFUL:          0  USELESS:          0
L1D AVERAGE MISS LATENCY: 173.194 cycles
L1I TOTAL     ACCESS:    5236750  HIT:    5235986  MISS:        764
L1I LOAD      ACCESS:    5236750  HIT:    5235986  MISS:        764
L1I RFO       ACCESS:          0  HIT:          0  MISS:          0
L1I PREFETCH  ACCESS:          0  HIT:          0  MISS:          0
L1I WRITEBACK ACCESS:          0  HIT:          0  MISS:          0
L1I PREFETCH  REQUESTED:          0  ISSUED:          0  USEFUL:          0  USELESS:          0
L1I AVERAGE MISS LATENCY: 221.725 cycles
L2C TOTAL     ACCESS:    1118816  HIT:     545703  MISS:     573113
L2C LOAD      ACCESS:     674032  HIT:     154687  MISS:     519345
L2C RFO       ACCESS:      75601  HIT:      22522  MISS:      53079
L2C PREFETCH  ACCESS:          0  HIT:          0  MISS:          0
L2C WRITEBACK ACCESS:     369183  HIT:     368494  MISS:        689
L2C PREFETCH  REQUESTED:          0  ISSUED:          0  USEFUL:          0  USELESS:          0
L2C AVERAGE MISS LATENCY: 203.51 cycles
LLC TOTAL     ACCESS:     902332  HIT:      13824  MISS:     888508
LLC LOAD      ACCESS:     519337  HIT:       8841  MISS:     510496
LLC RFO       ACCESS:      53079  HIT:       2282  MISS:      50797
LLC PREFETCH  ACCESS:          0  HIT:          0  MISS:          0
LLC WRITEBACK ACCESS:     329916  HIT:       2701  MISS:     327215
LLC PREFETCH  REQUESTED:          0  ISSUED:          0  USEFUL:          0  USELESS:          0
LLC AVERAGE MISS LATENCY: 111.284 cycles
Major fault: 0 Minor fault: 18787

DRAM Statistics
 CHANNEL 0
 RQ ROW_BUFFER_HIT:      26557  ROW_BUFFER_MISS:     534521
 DBUS_CONGESTED:     281928
 WQ ROW_BUFFER_HIT:     159834  ROW_BUFFER_MISS:     170008  FULL:          0

 AVG_CONGESTED_CYCLE: 6

CPU 0 Branch Prediction Accuracy: 95.7075% MPKI: 7.06113 Average ROB Occupancy at Mispredict: 89.1235

Branch types
NOT_BRANCH: 25064655 83.5488%
BRANCH_DIRECT_JUMP: 165457 0.551523%
BRANCH_INDIRECT: 0 0%
BRANCH_CONDITIONAL: 4730803 15.7693%
BRANCH_DIRECT_CALL: 19370 0.0645667%
BRANCH_INDIRECT_CALL: 0 0%
BRANCH_RETURN: 19368 0.06456%
BRANCH_OTHER: 0 0%

