
*** ChampSim Multicore Out-of-Order Simulator ***

Warmup Instructions: 30000000
Simulation Instructions: 30000000
Number of CPUs: 1
LLC sets: 32
LLC ways: 32
Off-chip DRAM Size: 4096 MB Channels: 1 Width: 64-bit Data Rate: 3200 MT/s

CPU 0 runs ./traces/cadical-low-60K-1186B.champsimtrace.xz
[42407, 4693, 20394, 19747, 33126, 46900, 44644, 19408, 14910, 6585, 2402, 132, 652]
[74277, 9366, 32366, 35769, 64097, 93502, 94022, 46523, 34337, 19153, 4611, 1147, 2830]
[135863, 23988, 47338, 61222, 92316, 131348, 129527, 65120, 44590, 24440, 6924, 2158, 3166]
[200192, 36746, 63182, 85772, 118889, 171058, 157213, 82602, 55851, 30878, 11757, 3711, 6149]
[248121, 44609, 74849, 103951, 146086, 215349, 199906, 101203, 71615, 37082, 16456, 3822, 16951]
[296426, 53105, 86354, 124798, 176080, 264708, 240851, 121700, 81499, 47465, 19969, 4502, 18543]
Heartbeat CPU 0 instructions: 10000001 cycles: 3428180 heartbeat IPC: 2.917 cumulative IPC: 2.917 (Simulation time: 0 hr 1 min 47 sec) 
[339555, 59900, 99124, 144234, 206009, 307348, 290077, 147910, 92720, 54727, 25074, 5436, 19886]
[409732, 73052, 118920, 176748, 235424, 335289, 317258, 162880, 99601, 58632, 29856, 5928, 24680]
[445898, 78331, 130548, 195694, 266982, 379051, 360802, 194133, 113599, 68259, 37033, 7749, 25921]
[500542, 88119, 144513, 219905, 299558, 421651, 398420, 211482, 124417, 72708, 39094, 10561, 29030]
[569003, 103577, 157059, 240351, 322767, 453237, 431814, 223906, 131789, 76912, 45728, 11740, 48117]
[626457, 116084, 169121, 267718, 355649, 497972, 465861, 243688, 139811, 82598, 46637, 12282, 48122]
Heartbeat CPU 0 instructions: 20000002 cycles: 6906524 heartbeat IPC: 2.87493 cumulative IPC: 2.89581 (Simulation time: 0 hr 3 min 24 sec) 
[665761, 121129, 177219, 284770, 384732, 549382, 520187, 265166, 152213, 88092, 53259, 12798, 53292]
[710856, 127925, 189832, 308355, 413065, 598902, 559692, 291805, 165752, 93775, 55390, 13171, 55480]
[741086, 130297, 197454, 323813, 438452, 652985, 618610, 323878, 182117, 102879, 57405, 13888, 57136]
[784910, 137391, 210057, 350013, 468317, 687695, 659122, 349007, 201671, 110739, 61309, 17440, 58329]
[835960, 147451, 228931, 384115, 497132, 721452, 686294, 370154, 215360, 119542, 65414, 20612, 59583]
[865215, 151250, 239779, 404081, 525312, 768704, 730837, 406177, 232454, 131483, 67630, 22689, 62389]
[908078, 156809, 253165, 432242, 556278, 805320, 773200, 430225, 246501, 140745, 71686, 24062, 65689]
Heartbeat CPU 0 instructions: 30000000 cycles: 10261572 heartbeat IPC: 2.98058 cumulative IPC: 2.92353 (Simulation time: 0 hr 5 min 0 sec) 

Warmup complete CPU 0 instructions: 30000004 cycles: 10261573 (Simulation time: 0 hr 5 min 0 sec) 

[964468, 167917, 276226, 466555, 585452, 831720, 801078, 448653, 257710, 146593, 78236, 27696, 67696]
[998055, 172064, 288340, 482131, 616192, 873215, 852017, 474905, 274721, 157383, 83777, 28966, 74234]
[1068744, 189271, 303564, 508026, 642764, 904803, 876763, 489033, 286883, 164806, 85785, 29308, 82250]
[1106114, 192869, 318387, 532117, 676868, 961933, 925007, 509221, 295879, 167916, 89004, 30167, 82518]
[1139534, 197192, 327918, 547941, 703976, 1009236, 972332, 537322, 316781, 180732, 92700, 31620, 86716]
[1199052, 211142, 344092, 574753, 737920, 1042858, 999327, 555073, 330045, 188610, 96882, 32114, 88132]
Heartbeat CPU 0 instructions: 40000001 cycles: 38832739 heartbeat IPC: 0.350003 cumulative IPC: 0.350003 (Simulation time: 0 hr 6 min 59 sec) 
[1232595, 214472, 356835, 588677, 763257, 1096642, 1050801, 579973, 348554, 198968, 101260, 33781, 90185]
[1274531, 221507, 368210, 608893, 789317, 1139322, 1092812, 606335, 367772, 211335, 104643, 34944, 92379]
[1315619, 229279, 385357, 635387, 820931, 1174523, 1126371, 626946, 386018, 219173, 110073, 40360, 97963]
[1403650, 253004, 401913, 662289, 841117, 1201240, 1145732, 634666, 394557, 229377, 113628, 43690, 99137]
[1468744, 265008, 420104, 682435, 883038, 1250590, 1171388, 642309, 400714, 236164, 115014, 44696, 99796]
[1504817, 268229, 433415, 697444, 917786, 1303889, 1222414, 671390, 413261, 239057, 116092, 46155, 102051]
[1538715, 271408, 446018, 708701, 955516, 1356377, 1275964, 695971, 427970, 245038, 117523, 47208, 105591]
Heartbeat CPU 0 instructions: 50000000 cycles: 69357213 heartbeat IPC: 0.327606 cumulative IPC: 0.338434 (Simulation time: 0 hr 8 min 59 sec) 
[1571916, 275167, 456026, 721449, 985891, 1407637, 1329319, 727420, 445538, 254481, 119502, 47818, 105836]
[1616099, 283206, 472398, 747241, 1019711, 1442559, 1371405, 746504, 461603, 264483, 122627, 48313, 107851]
[1698877, 314191, 508916, 772097, 1038723, 1462872, 1391412, 757301, 466652, 267762, 124046, 49228, 107923]
[1818216, 365632, 548473, 797737, 1048174, 1468023, 1393821, 758637, 468011, 267958, 124166, 49228, 107924]
[1885313, 416603, 596559, 836592, 1068277, 1481814, 1403388, 762067, 471047, 268944, 124243, 49229, 107924]
[1977310, 457968, 637644, 869169, 1086304, 1495879, 1410685, 766401, 474209, 270603, 124674, 49230, 107924]
Heartbeat CPU 0 instructions: 60000002 cycles: 98313817 heartbeat IPC: 0.345344 cumulative IPC: 0.340707 (Simulation time: 0 hr 10 min 11 sec) 
Finished CPU 0 instructions: 30000002 cycles: 88052245 cumulative IPC: 0.340707 (Simulation time: 0 hr 10 min 11 sec) 

ChampSim completed all CPUs

Region of Interest Statistics

CPU 0 cumulative IPC: 0.340707 instructions: 30000002 cycles: 88052245
L1D TOTAL     ACCESS:    6416413  HIT:    5667507  MISS:     748906
L1D LOAD      ACCESS:    4266313  HIT:    3593025  MISS:     673288
L1D RFO       ACCESS:    2150100  HIT:    2074482  MISS:      75618
L1D PREFETCH  ACCESS:          0  HIT:          0  MISS:          0
L1D WRITEBACK ACCESS:          0  HIT:          0  MISS:          0
L1D PREFETCH  REQUESTED:          0  ISSUED:          0  USEFUL:          0  USELESS:          0
L1D AVERAGE MISS LATENCY: 173.137 cycles
L1I TOTAL     ACCESS:    5237475  HIT:    5236711  MISS:        764
L1I LOAD      ACCESS:    5237475  HIT:    5236711  MISS:        764
L1I RFO       ACCESS:          0  HIT:          0  MISS:          0
L1I PREFETCH  ACCESS:          0  HIT:          0  MISS:          0
L1I WRITEBACK ACCESS:          0  HIT:          0  MISS:          0
L1I PREFETCH  REQUESTED:          0  ISSUED:          0  USEFUL:          0  USELESS:          0
L1I AVERAGE MISS LATENCY: 220.139 cycles
L2C TOTAL     ACCESS:    1118832  HIT:     545816  MISS:     573016
L2C LOAD      ACCESS:     674037  HIT:     154812  MISS:     519225
L2C RFO       ACCESS:      75608  HIT:      22546  MISS:      53062
L2C PREFETCH  ACCESS:          0  HIT:          0  MISS:          0
L2C WRITEBACK ACCESS:     369187  HIT:     368458  MISS:        729
L2C PREFETCH  REQUESTED:          0  ISSUED:          0  USEFUL:          0  USELESS:          0
L2C AVERAGE MISS LATENCY: 203.508 cycles
LLC TOTAL     ACCESS:     902145  HIT:      13798  MISS:     888347
LLC LOAD      ACCESS:     519221  HIT:       8557  MISS:     510664
LLC RFO       ACCESS:      53060  HIT:       2349  MISS:      50711
LLC PREFETCH  ACCESS:          0  HIT:          0  MISS:          0
LLC WRITEBACK ACCESS:     329864  HIT:       2892  MISS:     326972
LLC PREFETCH  REQUESTED:          0  ISSUED:          0  USEFUL:          0  USELESS:          0
LLC AVERAGE MISS LATENCY: 111.291 cycles
Major fault: 0 Minor fault: 18787

DRAM Statistics
 CHANNEL 0
 RQ ROW_BUFFER_HIT:      26872  ROW_BUFFER_MISS:     534313
 DBUS_CONGESTED:     281472
 WQ ROW_BUFFER_HIT:     159929  ROW_BUFFER_MISS:     169887  FULL:          0

 AVG_CONGESTED_CYCLE: 6

CPU 0 Branch Prediction Accuracy: 95.6746% MPKI: 7.11533 Average ROB Occupancy at Mispredict: 88.7811

Branch types
NOT_BRANCH: 25064679 83.5489%
BRANCH_DIRECT_JUMP: 165457 0.551523%
BRANCH_INDIRECT: 0 0%
BRANCH_CONDITIONAL: 4730810 15.7694%
BRANCH_DIRECT_CALL: 19370 0.0645667%
BRANCH_INDIRECT_CALL: 0 0%
BRANCH_RETURN: 19369 0.0645633%
BRANCH_OTHER: 0 0%

