
*** ChampSim Multicore Out-of-Order Simulator ***

Warmup Instructions: 30000000
Simulation Instructions: 30000000
Number of CPUs: 1
LLC sets: 32
LLC ways: 32
Off-chip DRAM Size: 4096 MB Channels: 1 Width: 64-bit Data Rate: 3200 MT/s

CPU 0 runs ./traces/cadical-med-30K-109B.champsimtrace.xz
[102136, 14243, 28830, 36118, 31320, 25478, 10251, 2140, 858, 1020, 1070, 2536, 0]
[192330, 28385, 48902, 71741, 70926, 56492, 27315, 5353, 2137, 1437, 1600, 5382, 0]
[279306, 42473, 69279, 108133, 106340, 92481, 46670, 8260, 2879, 2242, 2131, 7806, 0]
[367233, 56497, 90390, 145726, 147165, 122855, 63599, 11324, 3860, 2846, 3780, 8725, 0]
[455339, 73369, 110451, 180031, 181421, 155921, 81945, 14564, 4586, 3380, 5115, 9755, 4123]
Heartbeat CPU 0 instructions: 10000000 cycles: 3420238 heartbeat IPC: 2.92377 cumulative IPC: 2.92377 (Simulation time: 0 hr 1 min 51 sec) 
[543147, 89191, 131171, 214302, 215868, 188939, 102588, 18229, 5251, 3941, 5600, 9999, 7774]
[633088, 107588, 152272, 247194, 246717, 219480, 117632, 21677, 8535, 5813, 6733, 12823, 12448]
[717779, 124107, 172516, 284800, 284825, 249697, 133522, 25530, 9433, 6563, 6770, 13126, 19332]
[804713, 140447, 193611, 320444, 315820, 283286, 151945, 29901, 10543, 7433, 6828, 13441, 25588]
[892017, 158009, 213994, 356966, 349454, 313837, 167772, 32874, 11558, 8037, 7563, 13874, 34045]
[977230, 173703, 236829, 395535, 385947, 344841, 187697, 35887, 11865, 8224, 7970, 14252, 36020]
Heartbeat CPU 0 instructions: 20000000 cycles: 6872360 heartbeat IPC: 2.89677 cumulative IPC: 2.91021 (Simulation time: 0 hr 3 min 34 sec) 
[1061942, 189721, 258320, 435231, 423751, 375015, 206937, 38175, 12942, 8524, 8335, 14514, 38593]
[1150529, 206972, 279935, 471021, 457432, 404123, 225512, 41550, 13965, 10019, 8634, 15059, 43249]
[1236517, 223431, 299314, 506212, 490821, 437773, 247722, 46726, 15025, 10314, 8925, 15324, 45896]
[1323646, 240447, 321354, 542147, 524856, 469018, 265557, 50270, 15926, 12758, 9015, 15463, 49543]
[1409033, 256779, 345682, 578520, 557515, 501424, 285756, 53832, 16683, 13099, 9768, 15510, 52399]
[1495635, 276498, 365638, 613651, 589066, 535204, 304883, 56725, 17784, 14017, 11345, 16005, 55549]
Heartbeat CPU 0 instructions: 30000003 cycles: 10286579 heartbeat IPC: 2.92893 cumulative IPC: 2.91642 (Simulation time: 0 hr 5 min 11 sec) 

Warmup complete CPU 0 instructions: 30000003 cycles: 10286579 (Simulation time: 0 hr 5 min 11 sec) 

[1579387, 293776, 386489, 651233, 623192, 569618, 325169, 59695, 18305, 14600, 11612, 16232, 58692]
[1662809, 312259, 406756, 686829, 657473, 601834, 345902, 62477, 20787, 15713, 11774, 17473, 61914]
[1743567, 330251, 426171, 724019, 690912, 636221, 367775, 65311, 21841, 16570, 12089, 20448, 64825]
[1831230, 347922, 447343, 760095, 724865, 665169, 386279, 68228, 22550, 16725, 12269, 20830, 72495]
[1915372, 367429, 465482, 794939, 755931, 695844, 408727, 71796, 23985, 17217, 12761, 20890, 81627]
[2003096, 385305, 484801, 831627, 791408, 725633, 427373, 74812, 24708, 17702, 13082, 20902, 87551]
Heartbeat CPU 0 instructions: 40000002 cycles: 42009895 heartbeat IPC: 0.315226 cumulative IPC: 0.315226 (Simulation time: 0 hr 7 min 12 sec) 
[2091428, 405017, 501771, 864214, 822606, 756618, 448821, 78525, 26185, 18164, 13465, 21017, 96169]
[2175573, 424583, 519548, 900156, 855216, 789941, 470884, 81592, 27059, 18451, 14108, 21279, 101610]
[2261265, 445887, 537572, 936214, 885616, 819491, 488776, 85862, 27929, 19491, 14543, 21377, 111977]
[2342151, 466271, 554286, 976942, 922370, 852168, 507741, 88480, 28454, 19673, 14748, 21546, 117170]
[2430311, 488269, 572016, 1012801, 951950, 882898, 524805, 91743, 30280, 20132, 16156, 21740, 124899]
Heartbeat CPU 0 instructions: 50000003 cycles: 74029452 heartbeat IPC: 0.312309 cumulative IPC: 0.313761 (Simulation time: 0 hr 9 min 14 sec) 
[2511524, 506163, 592028, 1054008, 990238, 917213, 542470, 93791, 31052, 20530, 16252, 21885, 126846]
[2595792, 523392, 609607, 1097917, 1030612, 945504, 556686, 96125, 31679, 21242, 16741, 22139, 132564]
[2681187, 539354, 627113, 1138083, 1066757, 976074, 576619, 98450, 32534, 21778, 17207, 22489, 138355]
[2768573, 555979, 646657, 1176041, 1101325, 1005479, 596155, 101324, 33122, 22170, 17820, 22713, 144642]
[2856848, 573436, 666185, 1211710, 1133214, 1036025, 615352, 105037, 33753, 23674, 18615, 22939, 151212]
[2938950, 589292, 686216, 1249792, 1170913, 1068220, 634396, 108553, 35477, 24453, 19971, 22974, 154793]
Heartbeat CPU 0 instructions: 60000003 cycles: 106328040 heartbeat IPC: 0.309611 cumulative IPC: 0.312365 (Simulation time: 0 hr 10 min 16 sec) 
Finished CPU 0 instructions: 30000000 cycles: 96041461 cumulative IPC: 0.312365 (Simulation time: 0 hr 10 min 16 sec) 

ChampSim completed all CPUs

Region of Interest Statistics

CPU 0 cumulative IPC: 0.312365 instructions: 30000000 cycles: 96041461
L1D TOTAL     ACCESS:    7749914  HIT:    6613865  MISS:    1136049
L1D LOAD      ACCESS:    5110932  HIT:    4188125  MISS:     922807
L1D RFO       ACCESS:    2638982  HIT:    2425740  MISS:     213242
L1D PREFETCH  ACCESS:          0  HIT:          0  MISS:          0
L1D WRITEBACK ACCESS:          0  HIT:          0  MISS:          0
L1D PREFETCH  REQUESTED:          0  ISSUED:          0  USEFUL:          0  USELESS:          0
L1D AVERAGE MISS LATENCY: 143.417 cycles
L1I TOTAL     ACCESS:    5264914  HIT:    5263962  MISS:        952
L1I LOAD      ACCESS:    5264914  HIT:    5263962  MISS:        952
L1I RFO       ACCESS:          0  HIT:          0  MISS:          0
L1I PREFETCH  ACCESS:          0  HIT:          0  MISS:          0
L1I WRITEBACK ACCESS:          0  HIT:          0  MISS:          0
L1I PREFETCH  REQUESTED:          0  ISSUED:          0  USEFUL:          0  USELESS:          0
L1I AVERAGE MISS LATENCY: 227.517 cycles
L2C TOTAL     ACCESS:    1708361  HIT:    1001980  MISS:     706381
L2C LOAD      ACCESS:     923722  HIT:     320014  MISS:     603708
L2C RFO       ACCESS:     213119  HIT:     111495  MISS:     101624
L2C PREFETCH  ACCESS:          0  HIT:          0  MISS:          0
L2C WRITEBACK ACCESS:     571520  HIT:     570471  MISS:       1049
L2C PREFETCH  REQUESTED:          0  ISSUED:          0  USEFUL:          0  USELESS:          0
L2C AVERAGE MISS LATENCY: 205.741 cycles
LLC TOTAL     ACCESS:    1106176  HIT:      36893  MISS:    1069283
LLC LOAD      ACCESS:     603704  HIT:      19674  MISS:     584030
LLC RFO       ACCESS:     101621  HIT:      10113  MISS:      91508
LLC PREFETCH  ACCESS:          0  HIT:          0  MISS:          0
LLC WRITEBACK ACCESS:     400851  HIT:       7106  MISS:     393745
LLC PREFETCH  REQUESTED:          0  ISSUED:          0  USEFUL:          0  USELESS:          0
LLC AVERAGE MISS LATENCY: 115.801 cycles
Major fault: 0 Minor fault: 2176

DRAM Statistics
 CHANNEL 0
 RQ ROW_BUFFER_HIT:      25599  ROW_BUFFER_MISS:     649154
 DBUS_CONGESTED:     350370
 WQ ROW_BUFFER_HIT:     246667  ROW_BUFFER_MISS:     153772  FULL:          0

 AVG_CONGESTED_CYCLE: 6

CPU 0 Branch Prediction Accuracy: 93.2633% MPKI: 9.94363 Average ROB Occupancy at Mispredict: 74.8234

Branch types
NOT_BRANCH: 25571636 85.2388%
BRANCH_DIRECT_JUMP: 312551 1.04184%
BRANCH_INDIRECT: 0 0%
BRANCH_CONDITIONAL: 4076729 13.5891%
BRANCH_DIRECT_CALL: 19428 0.06476%
BRANCH_INDIRECT_CALL: 0 0%
BRANCH_RETURN: 19428 0.06476%
BRANCH_OTHER: 0 0%

