
*** ChampSim Multicore Out-of-Order Simulator ***

Warmup Instructions: 50000000
Simulation Instructions: 50000000
Number of CPUs: 1
LLC sets: 32
LLC ways: 32
Off-chip DRAM Size: 4096 MB Channels: 1 Width: 64-bit Data Rate: 3200 MT/s

CPU 0 runs ./traces/cadical-med-30K-267B.champsimtrace.xz
[85094, 13063, 29466, 36997, 45461, 29877, 14427, 1496, 118, 1, 0, 0, 0]
[171234, 29144, 53389, 73796, 96427, 56723, 26186, 3565, 1002, 534, 0, 0, 0]
[266874, 42938, 72945, 105380, 136482, 86392, 42893, 8203, 3843, 1771, 196, 83, 0]
[352822, 59566, 96682, 138661, 188492, 117808, 54618, 9235, 4012, 1779, 242, 83, 0]
[440407, 78029, 114642, 171711, 226687, 142071, 74907, 12325, 6308, 6965, 1583, 4365, 0]
Heartbeat CPU 0 instructions: 10000002 cycles: 3446959 heartbeat IPC: 2.90111 cumulative IPC: 2.90111 (Simulation time: 0 hr 0 min 42 sec) 
[523426, 103049, 133793, 199625, 276292, 173465, 90722, 14909, 7159, 7184, 1640, 4735, 1]
[607044, 125561, 154159, 233891, 325512, 200266, 103779, 16404, 7499, 7262, 1668, 8954, 1]
[691750, 151768, 172441, 264544, 365950, 230675, 120800, 19160, 8505, 7639, 1790, 12977, 1]
[771033, 173487, 192119, 298312, 414537, 258392, 134875, 22681, 9999, 7755, 4184, 16624, 2]
[855772, 196960, 208267, 323220, 452561, 288130, 150962, 26305, 15528, 8488, 6485, 22763, 4559]
[937952, 220159, 229697, 349891, 493143, 319345, 166618, 29327, 16448, 9178, 6760, 23881, 13601]
Heartbeat CPU 0 instructions: 20000001 cycles: 6886903 heartbeat IPC: 2.90702 cumulative IPC: 2.90406 (Simulation time: 0 hr 1 min 27 sec) 
[1027744, 242113, 246751, 377886, 530249, 343836, 180111, 33209, 17172, 9354, 7185, 24631, 31759]
[1115440, 267589, 262949, 403670, 571401, 377330, 199022, 36703, 18301, 9638, 7318, 25458, 33181]
[1201473, 289309, 280469, 433705, 609121, 401674, 212785, 38753, 19419, 9798, 7740, 32758, 46996]
[1288158, 313067, 299240, 462724, 651036, 430076, 226532, 41863, 20747, 10137, 7851, 35524, 53045]
[1369591, 338655, 315977, 496630, 698217, 460886, 241805, 44458, 21891, 10606, 8110, 35568, 53606]
[1454426, 363034, 333917, 525139, 737758, 491560, 260077, 46738, 22548, 10848, 8193, 35570, 62192]
Heartbeat CPU 0 instructions: 30000003 cycles: 10313987 heartbeat IPC: 2.91793 cumulative IPC: 2.90867 (Simulation time: 0 hr 2 min 13 sec) 
[1537418, 385391, 350032, 559068, 785403, 518950, 274873, 48719, 23401, 11335, 8332, 35769, 69309]
[1626886, 409224, 364822, 582273, 822650, 547154, 296688, 53493, 25554, 12051, 8851, 36133, 78221]
[1712499, 431091, 382592, 613905, 867134, 575465, 308500, 57991, 25673, 12634, 8916, 36240, 87360]
[1800050, 455674, 399437, 640567, 904270, 609004, 326665, 62448, 26605, 12788, 8950, 36253, 93289]
[1886335, 476965, 416534, 673842, 941471, 638815, 339551, 64076, 26915, 13423, 9020, 36343, 108710]
[1967906, 502172, 436304, 703843, 984381, 669281, 357072, 67150, 27669, 14531, 9149, 36405, 112137]
Heartbeat CPU 0 instructions: 40000000 cycles: 13753367 heartbeat IPC: 2.9075 cumulative IPC: 2.90838 (Simulation time: 0 hr 3 min 0 sec) 
[2049802, 524937, 455163, 732530, 1026838, 698178, 372225, 70742, 29067, 18342, 9672, 36693, 119811]
[2131889, 546897, 471256, 771578, 1072795, 723977, 386716, 72989, 30290, 18825, 9959, 36886, 125943]
[2214475, 569885, 489918, 804497, 1118768, 753346, 401582, 76837, 31194, 19038, 10826, 36979, 128655]
[2299611, 592583, 505945, 839592, 1170986, 780862, 412286, 77921, 31414, 19553, 11965, 36982, 132300]
[2392484, 613416, 521219, 868205, 1205300, 807449, 426635, 80992, 32270, 20224, 12287, 37143, 150376]
[2476774, 634852, 538240, 899652, 1248814, 837513, 439867, 84377, 33067, 20630, 15497, 37683, 157034]
Heartbeat CPU 0 instructions: 50000003 cycles: 17196403 heartbeat IPC: 2.90441 cumulative IPC: 2.90758 (Simulation time: 0 hr 3 min 46 sec) 

Warmup complete CPU 0 instructions: 50000003 cycles: 17196403 (Simulation time: 0 hr 3 min 46 sec) 

[2557827, 656560, 548495, 933793, 1285372, 868149, 456046, 91797, 36950, 23016, 16435, 38223, 167337]
[2638410, 680910, 561786, 968480, 1330312, 897774, 470899, 96899, 40136, 24609, 17139, 38354, 170292]
[2716681, 705347, 577428, 1007264, 1387206, 927226, 481150, 98026, 40511, 24847, 17299, 38424, 170591]
[2801398, 729016, 595290, 1043490, 1436681, 953441, 490550, 99086, 40720, 25402, 17306, 38425, 177195]
[2883689, 753615, 612573, 1078966, 1485331, 981955, 502309, 100370, 41039, 26007, 17711, 38487, 181948]
[2965321, 780342, 629577, 1110832, 1536522, 1009665, 514877, 102802, 42056, 26080, 17805, 38495, 185626]
Heartbeat CPU 0 instructions: 60000000 cycles: 58275160 heartbeat IPC: 0.243435 cumulative IPC: 0.243435 (Simulation time: 0 hr 4 min 49 sec) 
[3048010, 804116, 647027, 1142719, 1570356, 1034810, 535046, 105915, 46707, 26144, 17815, 38501, 198834]
[3131029, 827874, 666809, 1176175, 1602068, 1060274, 557263, 109667, 48964, 26531, 17897, 38504, 208945]
[3213354, 852227, 685520, 1201409, 1639212, 1088532, 578974, 114059, 50378, 26851, 17923, 38507, 221054]
[3294671, 875678, 703982, 1227238, 1678058, 1120020, 598987, 117613, 51847, 27554, 18063, 38510, 231779]
[3375305, 899957, 725066, 1262241, 1717575, 1145927, 615834, 121155, 52919, 27631, 18101, 38731, 239558]
Heartbeat CPU 0 instructions: 70000000 cycles: 89701295 heartbeat IPC: 0.318206 cumulative IPC: 0.275843 (Simulation time: 0 hr 5 min 48 sec) 
[3450231, 923534, 747112, 1300645, 1764490, 1175287, 629540, 122867, 53387, 27846, 18692, 38743, 243626]
[3529051, 945942, 768775, 1337769, 1803674, 1202409, 645534, 125351, 54341, 27884, 19175, 39081, 253014]
[3607579, 967695, 790457, 1369386, 1844669, 1234463, 664421, 128298, 54874, 28062, 19472, 39273, 259351]
[3685790, 989703, 814149, 1405103, 1883779, 1263961, 682130, 131104, 55353, 28589, 19604, 39707, 265028]
[3763791, 1010361, 836487, 1434957, 1926297, 1294196, 699821, 137116, 55999, 28812, 19871, 39988, 272304]
[3844006, 1032950, 859780, 1467212, 1967365, 1323468, 716076, 139548, 56281, 29750, 19883, 40349, 279332]
Heartbeat CPU 0 instructions: 80000001 cycles: 123844285 heartbeat IPC: 0.292886 cumulative IPC: 0.2813 (Simulation time: 0 hr 6 min 46 sec) 
[3920940, 1052889, 881569, 1501361, 2011108, 1350132, 730125, 142741, 56682, 30042, 19899, 40576, 293936]
[4001979, 1073193, 901092, 1531059, 2043495, 1376795, 748580, 145309, 57831, 30462, 20138, 40715, 317352]
[4084874, 1097618, 920624, 1557161, 2088771, 1409549, 767664, 148860, 59408, 31168, 20229, 40722, 317352]
[4163697, 1118061, 940521, 1592499, 2130049, 1435605, 783053, 150558, 60608, 31808, 20242, 40729, 332570]
[4243802, 1140030, 959939, 1620967, 2167074, 1466588, 801815, 153527, 61398, 32565, 20273, 40731, 347291]
[4324995, 1160396, 978909, 1648278, 2203454, 1496901, 821353, 155812, 62845, 33292, 20493, 40732, 364540]
Heartbeat CPU 0 instructions: 90000001 cycles: 157516132 heartbeat IPC: 0.296984 cumulative IPC: 0.285063 (Simulation time: 0 hr 7 min 43 sec) 
[4405043, 1184122, 997678, 1676546, 2243156, 1534776, 845409, 158577, 63510, 33398, 20511, 40733, 364541]
[4487056, 1206488, 1021557, 1705411, 2276833, 1564705, 863078, 163168, 64386, 33486, 20521, 40736, 376575]
[4565954, 1229240, 1048028, 1735960, 2318548, 1593034, 879073, 165737, 65076, 33653, 20527, 40739, 384431]
[4643975, 1249953, 1075905, 1771009, 2358285, 1620448, 895709, 168468, 66001, 34472, 20810, 40742, 390223]
[4725728, 1272392, 1095819, 1793462, 2396356, 1656130, 916945, 172518, 67533, 34930, 21197, 40757, 398233]
[4803470, 1293808, 1120628, 1825424, 2439263, 1685943, 933984, 174696, 68100, 35225, 21660, 40758, 405041]
*** Reached end of trace for Core: 0 Repeating trace: ./traces/cadical-med-30K-267B.champsimtrace.xz
Heartbeat CPU 0 instructions: 100000000 cycles: 190219773 heartbeat IPC: 0.305776 cumulative IPC: 0.288978 (Simulation time: 0 hr 8 min 33 sec) 
Finished CPU 0 instructions: 50000001 cycles: 173023371 cumulative IPC: 0.288978 (Simulation time: 0 hr 8 min 33 sec) 

ChampSim completed all CPUs

Region of Interest Statistics

CPU 0 cumulative IPC: 0.288978 instructions: 50000001 cycles: 173023371
L1D TOTAL     ACCESS:   13175810  HIT:   11300976  MISS:    1874834
L1D LOAD      ACCESS:    8654493  HIT:    7124276  MISS:    1530217
L1D RFO       ACCESS:    4521317  HIT:    4176700  MISS:     344617
L1D PREFETCH  ACCESS:          0  HIT:          0  MISS:          0
L1D WRITEBACK ACCESS:          0  HIT:          0  MISS:          0
L1D PREFETCH  REQUESTED:          0  ISSUED:          0  USEFUL:          0  USELESS:          0
L1D AVERAGE MISS LATENCY: 149.993 cycles
L1I TOTAL     ACCESS:    8796735  HIT:    8796548  MISS:        187
L1I LOAD      ACCESS:    8796735  HIT:    8796548  MISS:        187
L1I RFO       ACCESS:          0  HIT:          0  MISS:          0
L1I PREFETCH  ACCESS:          0  HIT:          0  MISS:          0
L1I WRITEBACK ACCESS:          0  HIT:          0  MISS:          0
L1I PREFETCH  REQUESTED:          0  ISSUED:          0  USEFUL:          0  USELESS:          0
L1I AVERAGE MISS LATENCY: 218.107 cycles
L2C TOTAL     ACCESS:    2854066  HIT:    1633802  MISS:    1220264
L2C LOAD      ACCESS:    1530318  HIT:     493074  MISS:    1037244
L2C RFO       ACCESS:     344423  HIT:     163583  MISS:     180840
L2C PREFETCH  ACCESS:          0  HIT:          0  MISS:          0
L2C WRITEBACK ACCESS:     979325  HIT:     977145  MISS:       2180
L2C PREFETCH  REQUESTED:          0  ISSUED:          0  USEFUL:          0  USELESS:          0
L2C AVERAGE MISS LATENCY: 205.487 cycles
LLC TOTAL     ACCESS:    1944671  HIT:      64747  MISS:    1879924
LLC LOAD      ACCESS:    1037235  HIT:      33450  MISS:    1003785
LLC RFO       ACCESS:     180825  HIT:      18498  MISS:     162327
LLC PREFETCH  ACCESS:          0  HIT:          0  MISS:          0
LLC WRITEBACK ACCESS:     726611  HIT:      12799  MISS:     713812
LLC PREFETCH  REQUESTED:          0  ISSUED:          0  USEFUL:          0  USELESS:          0
LLC AVERAGE MISS LATENCY: 113.329 cycles
Major fault: 0 Minor fault: 2968

DRAM Statistics
 CHANNEL 0
 RQ ROW_BUFFER_HIT:      34877  ROW_BUFFER_MISS:    1130034
 DBUS_CONGESTED:     606693
 WQ ROW_BUFFER_HIT:     409064  ROW_BUFFER_MISS:     316332  FULL:          0

 AVG_CONGESTED_CYCLE: 6

CPU 0 Branch Prediction Accuracy: 92.1694% MPKI: 11.654 Average ROB Occupancy at Mispredict: 64.4021

Branch types
NOT_BRANCH: 42558324 85.1166%
BRANCH_DIRECT_JUMP: 505843 1.01169%
BRANCH_INDIRECT: 0 0%
BRANCH_CONDITIONAL: 6899915 13.7998%
BRANCH_DIRECT_CALL: 17785 0.03557%
BRANCH_INDIRECT_CALL: 0 0%
BRANCH_RETURN: 17785 0.03557%
BRANCH_OTHER: 0 0%

