
*** ChampSim Multicore Out-of-Order Simulator ***

Warmup Instructions: 30000000
Simulation Instructions: 30000000
Number of CPUs: 1
LLC sets: 32
LLC ways: 32
Off-chip DRAM Size: 4096 MB Channels: 1 Width: 64-bit Data Rate: 3200 MT/s

CPU 0 runs ./traces/cadical-med-30K-831B.champsimtrace.xz
[100561, 16594, 17628, 39938, 46626, 23777, 8603, 1791, 354, 126, 2, 0, 0]
[196873, 33818, 35650, 65751, 90543, 51576, 24951, 5636, 1992, 4566, 643, 0, 1]
[280113, 48003, 55974, 100706, 138261, 82900, 41993, 8021, 4259, 7040, 723, 6, 1]
[365990, 63907, 75928, 139398, 187591, 110039, 56428, 10911, 5617, 7350, 833, 7, 1]
[446670, 83016, 88151, 178797, 236371, 142322, 74938, 14099, 6527, 7579, 1211, 7, 312]
Heartbeat CPU 0 instructions: 10000000 cycles: 3455558 heartbeat IPC: 2.89389 cumulative IPC: 2.89389 (Simulation time: 0 hr 1 min 50 sec) 
[526933, 102408, 107519, 217025, 287659, 170912, 85985, 20489, 7813, 7674, 1261, 9, 313]
[609302, 125155, 122608, 252956, 332203, 200298, 100958, 26741, 9766, 9984, 1699, 16, 314]
[690795, 150900, 134251, 284034, 371045, 233187, 122824, 31933, 15301, 10876, 2520, 20, 314]
[774958, 174587, 149006, 312685, 407601, 268058, 141910, 40013, 18097, 11403, 2870, 155, 2657]
[858591, 196972, 164664, 345262, 447661, 301275, 161150, 43988, 21756, 11827, 2976, 628, 3250]
[945198, 220544, 177158, 373896, 486254, 333456, 179761, 52238, 24115, 12445, 6509, 863, 3563]
Heartbeat CPU 0 instructions: 20000002 cycles: 6891656 heartbeat IPC: 2.91028 cumulative IPC: 2.90206 (Simulation time: 0 hr 3 min 32 sec) 
[1027117, 244155, 191313, 405779, 526443, 367183, 196367, 56924, 25846, 13087, 7319, 1515, 8952]
[1105013, 266431, 209408, 439473, 566554, 399244, 216051, 62210, 27618, 13793, 7631, 2133, 12441]
[1179120, 287425, 231863, 480935, 612155, 427179, 227359, 64075, 29120, 14909, 8207, 2457, 19196]
[1254362, 310461, 247779, 516684, 653124, 460303, 243146, 68889, 32266, 15792, 8627, 2788, 25779]
[1325867, 332829, 267444, 555798, 701313, 492578, 257176, 72803, 32969, 16314, 8935, 2832, 29142]
[1403205, 360521, 293022, 586852, 738621, 518596, 271279, 76488, 35208, 17287, 9415, 2940, 38566]
Heartbeat CPU 0 instructions: 30000000 cycles: 10335017 heartbeat IPC: 2.90414 cumulative IPC: 2.90275 (Simulation time: 0 hr 5 min 11 sec) 

Warmup complete CPU 0 instructions: 30000004 cycles: 10335018 (Simulation time: 0 hr 5 min 11 sec) 

[1472070, 383548, 313533, 626943, 782909, 547671, 287568, 81159, 37896, 18452, 10258, 4265, 41728]
[1539308, 404134, 333974, 670528, 831262, 577716, 300069, 84961, 39404, 19857, 10986, 7014, 44787]
[1601415, 429493, 360349, 703191, 878810, 612620, 314758, 89082, 42128, 21024, 11253, 9165, 46712]
[1663686, 449866, 377935, 738554, 921194, 645204, 338495, 97837, 46294, 24973, 12502, 11201, 48259]
[1727642, 477298, 395451, 774532, 961461, 678568, 355132, 105041, 48788, 27589, 13791, 11794, 54913]
[1793852, 504744, 414748, 814564, 1014507, 711672, 365499, 107173, 49733, 27970, 13879, 11892, 57767]
Heartbeat CPU 0 instructions: 40000002 cycles: 50000172 heartbeat IPC: 0.252111 cumulative IPC: 0.25211 (Simulation time: 0 hr 7 min 18 sec) 
[1857021, 533050, 437874, 857027, 1069034, 739114, 375927, 108886, 50579, 28309, 14180, 12180, 60819]
[1933465, 560643, 457566, 893480, 1105213, 764544, 388420, 112223, 51891, 29959, 14765, 16697, 71134]
[1999336, 587195, 477361, 930999, 1153231, 798122, 405226, 115344, 53734, 30910, 15003, 17456, 72083]
[2066942, 618789, 504676, 955860, 1181364, 826258, 423738, 123060, 56900, 33012, 15611, 18125, 87665]
[2134239, 651163, 529347, 985727, 1231135, 860875, 438726, 125023, 57205, 33044, 15714, 18136, 87666]
[2206342, 676608, 549489, 1020817, 1273477, 887603, 448576, 127658, 58912, 34223, 16104, 18986, 105205]
Heartbeat CPU 0 instructions: 50000001 cycles: 90333771 heartbeat IPC: 0.247932 cumulative IPC: 0.250004 (Simulation time: 0 hr 9 min 26 sec) 
[2270813, 704226, 572458, 1058442, 1318981, 922294, 463113, 131313, 60951, 35182, 16646, 19320, 106261]
[2335329, 729107, 596099, 1101731, 1376892, 953872, 472009, 132014, 61276, 35256, 16648, 19491, 106276]
[2408199, 750952, 618929, 1138296, 1411944, 978098, 485405, 136679, 64866, 37318, 18448, 20725, 122141]
[2483147, 773850, 638773, 1176292, 1457100, 1010067, 501426, 139694, 65858, 37811, 18728, 21607, 123647]
[2556721, 795549, 659675, 1212282, 1494723, 1037553, 513582, 143927, 67544, 39483, 19053, 22615, 141293]
[2624549, 817663, 682466, 1252509, 1544261, 1069120, 528097, 146984, 68582, 39931, 19219, 23015, 143604]
Heartbeat CPU 0 instructions: 60000001 cycles: 131058650 heartbeat IPC: 0.24555 cumulative IPC: 0.248501 (Simulation time: 0 hr 10 min 21 sec) 
Finished CPU 0 instructions: 30000001 cycles: 120723633 cumulative IPC: 0.248501 (Simulation time: 0 hr 10 min 21 sec) 

ChampSim completed all CPUs

Region of Interest Statistics

CPU 0 cumulative IPC: 0.248501 instructions: 30000001 cycles: 120723633
L1D TOTAL     ACCESS:    8371974  HIT:    7249087  MISS:    1122887
L1D LOAD      ACCESS:    5365423  HIT:    4439753  MISS:     925670
L1D RFO       ACCESS:    3006551  HIT:    2809334  MISS:     197217
L1D PREFETCH  ACCESS:          0  HIT:          0  MISS:          0
L1D WRITEBACK ACCESS:          0  HIT:          0  MISS:          0
L1D PREFETCH  REQUESTED:          0  ISSUED:          0  USEFUL:          0  USELESS:          0
L1D AVERAGE MISS LATENCY: 164.802 cycles
L1I TOTAL     ACCESS:    5197730  HIT:    5197567  MISS:        163
L1I LOAD      ACCESS:    5197730  HIT:    5197567  MISS:        163
L1I RFO       ACCESS:          0  HIT:          0  MISS:          0
L1I PREFETCH  ACCESS:          0  HIT:          0  MISS:          0
L1I WRITEBACK ACCESS:          0  HIT:          0  MISS:          0
L1I PREFETCH  REQUESTED:          0  ISSUED:          0  USEFUL:          0  USELESS:          0
L1I AVERAGE MISS LATENCY: 229.816 cycles
L2C TOTAL     ACCESS:    1762609  HIT:     958571  MISS:     804038
L2C LOAD      ACCESS:     925805  HIT:     241915  MISS:     683890
L2C RFO       ACCESS:     197128  HIT:      78645  MISS:     118483
L2C PREFETCH  ACCESS:          0  HIT:          0  MISS:          0
L2C WRITEBACK ACCESS:     639676  HIT:     638011  MISS:       1665
L2C PREFETCH  REQUESTED:          0  ISSUED:          0  USEFUL:          0  USELESS:          0
L2C AVERAGE MISS LATENCY: 206.123 cycles
LLC TOTAL     ACCESS:    1316245  HIT:      35627  MISS:    1280618
LLC LOAD      ACCESS:     683884  HIT:      19199  MISS:     664685
LLC RFO       ACCESS:     118476  HIT:      10392  MISS:     108084
LLC PREFETCH  ACCESS:          0  HIT:          0  MISS:          0
LLC WRITEBACK ACCESS:     513885  HIT:       6036  MISS:     507849
LLC PREFETCH  REQUESTED:          0  ISSUED:          0  USEFUL:          0  USELESS:          0
LLC AVERAGE MISS LATENCY: 109.792 cycles
Major fault: 0 Minor fault: 4439

DRAM Statistics
 CHANNEL 0
 RQ ROW_BUFFER_HIT:      16535  ROW_BUFFER_MISS:     755646
 DBUS_CONGESTED:     408653
 WQ ROW_BUFFER_HIT:     246832  ROW_BUFFER_MISS:     266796  FULL:          0

 AVG_CONGESTED_CYCLE: 6

CPU 0 Branch Prediction Accuracy: 91.3473% MPKI: 13.0996 Average ROB Occupancy at Mispredict: 58.1123

Branch types
NOT_BRANCH: 25458176 84.8606%
BRANCH_DIRECT_JUMP: 308041 1.0268%
BRANCH_INDIRECT: 0 0%
BRANCH_CONDITIONAL: 4217864 14.0595%
BRANCH_DIRECT_CALL: 7947 0.02649%
BRANCH_INDIRECT_CALL: 0 0%
BRANCH_RETURN: 7947 0.02649%
BRANCH_OTHER: 0 0%

