
*** ChampSim Multicore Out-of-Order Simulator ***

Warmup Instructions: 50000000
Simulation Instructions: 50000000
Number of CPUs: 1
LLC sets: 32
LLC ways: 32
Off-chip DRAM Size: 4096 MB Channels: 1 Width: 64-bit Data Rate: 3200 MT/s

CPU 0 runs ./traces/cadical-med-30K-109B.champsimtrace.xz
[108387, 12957, 23573, 35416, 32832, 25375, 10327, 2067, 1254, 1063, 107, 0, 2642]
[200938, 24123, 42052, 72465, 73770, 56808, 26677, 4780, 2419, 1908, 667, 92, 5301]
[289704, 36149, 62662, 107543, 113592, 89032, 46524, 8240, 3477, 2611, 878, 95, 7493]
[379175, 48710, 81846, 144779, 155451, 120070, 63589, 11886, 4514, 3358, 949, 142, 9531]
[474366, 59386, 101431, 176405, 190224, 155509, 81991, 15093, 5608, 3921, 1440, 445, 14181]
Heartbeat CPU 0 instructions: 10000000 cycles: 3420302 heartbeat IPC: 2.92372 cumulative IPC: 2.92372 (Simulation time: 0 hr 0 min 42 sec) 
[566272, 70978, 122086, 213199, 224717, 188428, 103649, 19340, 6453, 4462, 1690, 545, 14181]
[657805, 87159, 140746, 252001, 254860, 218359, 119947, 24444, 10339, 5610, 2881, 1844, 16005]
[741056, 106399, 158563, 291521, 291112, 248825, 136960, 28036, 11369, 5916, 3059, 2295, 22889]
[827089, 124402, 177146, 327190, 325529, 278175, 158052, 32157, 12515, 6996, 3205, 2397, 29147]
[916005, 141055, 195330, 363909, 362160, 306003, 173812, 35273, 13394, 7970, 3725, 2842, 38522]
[998446, 160349, 213726, 403618, 399569, 338565, 191298, 38269, 14286, 8178, 4155, 3071, 42470]
Heartbeat CPU 0 instructions: 20000000 cycles: 6872458 heartbeat IPC: 2.89674 cumulative IPC: 2.91017 (Simulation time: 0 hr 1 min 27 sec) 
[1081810, 178554, 232225, 441023, 438367, 369457, 210456, 40945, 14983, 8918, 4548, 3301, 47413]
[1173115, 194908, 249726, 474940, 472517, 400419, 227980, 44141, 15815, 9382, 4902, 3679, 56476]
[1258800, 213164, 268480, 509081, 506981, 432854, 249529, 47884, 16722, 9745, 5239, 3745, 61776]
[1345992, 230971, 287746, 545342, 542431, 461657, 268486, 51563, 17220, 10111, 5554, 3877, 69050]
[1431306, 247028, 308008, 582040, 577153, 492153, 290505, 54382, 18462, 10605, 5587, 4189, 74582]
[1522750, 261623, 327674, 618414, 609548, 518655, 309585, 58029, 19110, 11046, 5821, 4742, 85003]
Heartbeat CPU 0 instructions: 30000003 cycles: 10286686 heartbeat IPC: 2.92892 cumulative IPC: 2.91639 (Simulation time: 0 hr 2 min 13 sec) 
[1607286, 279273, 347203, 657092, 645154, 547925, 328832, 61463, 20076, 11347, 6125, 4972, 91252]
[1694096, 295126, 367051, 694970, 679895, 577678, 348039, 65356, 20756, 11992, 6306, 5034, 97701]
[1774376, 312241, 391170, 730130, 714924, 611946, 368559, 68863, 21774, 12611, 6885, 5043, 101478]
[1865370, 327280, 409775, 766947, 750131, 641984, 385493, 73448, 23693, 13736, 7079, 5658, 105406]
[1953634, 343662, 426020, 801616, 780958, 674186, 407981, 76293, 25166, 14369, 7451, 8028, 112636]
[2041610, 362389, 442367, 841766, 815503, 703179, 428198, 79150, 27393, 14619, 7620, 8501, 115705]
Heartbeat CPU 0 instructions: 40000002 cycles: 13705764 heartbeat IPC: 2.92476 cumulative IPC: 2.91848 (Simulation time: 0 hr 2 min 59 sec) 
[2132685, 380974, 458092, 876040, 844438, 734553, 448668, 86354, 28117, 15576, 9440, 9038, 120025]
[2218589, 398955, 474267, 913584, 878968, 766462, 469230, 89424, 28830, 16172, 10843, 9599, 125077]
[2310207, 412249, 490363, 951526, 911112, 794028, 488116, 93573, 30261, 17138, 11843, 10126, 135458]
[2394205, 426153, 509075, 993260, 947792, 825461, 508501, 96442, 30686, 17307, 12123, 10341, 140654]
[2489877, 438542, 527649, 1028541, 977673, 851926, 525830, 100795, 32425, 17873, 12374, 10438, 154057]
Heartbeat CPU 0 instructions: 50000001 cycles: 17127682 heartbeat IPC: 2.92234 cumulative IPC: 2.91925 (Simulation time: 0 hr 3 min 44 sec) 

Warmup complete CPU 0 instructions: 50000001 cycles: 17127682 (Simulation time: 0 hr 3 min 44 sec) 

[2568123, 458211, 549561, 1069005, 1014571, 886978, 543521, 103638, 33184, 18234, 12385, 10580, 156009]
[2651359, 475781, 569300, 1111591, 1054092, 915184, 558526, 106421, 33876, 18490, 12923, 10727, 161730]
[2737169, 490898, 589644, 1149276, 1090298, 947038, 576925, 108959, 35104, 19048, 13287, 10829, 167525]
[2825135, 506841, 610813, 1186938, 1123225, 977330, 595985, 111670, 35970, 19542, 13699, 11041, 173811]
[2916427, 522267, 629643, 1223541, 1156338, 1004808, 613681, 115484, 36879, 19980, 14266, 11309, 183377]
[2998155, 539176, 649202, 1261093, 1195981, 1034849, 633153, 119265, 38069, 20985, 15607, 11515, 186950]
Heartbeat CPU 0 instructions: 60000003 cycles: 49458694 heartbeat IPC: 0.309301 cumulative IPC: 0.309301 (Simulation time: 0 hr 4 min 43 sec) 
[3083135, 555254, 678639, 1298002, 1229311, 1062040, 645937, 121469, 39336, 21394, 15632, 12183, 197668]
[3161846, 570693, 702193, 1338222, 1267171, 1095887, 665151, 124325, 40595, 21687, 15861, 13263, 199106]
[3247334, 585002, 730119, 1374057, 1295925, 1125006, 681910, 128117, 41772, 22470, 16244, 17447, 206597]
[3326039, 602732, 754118, 1415657, 1329777, 1159054, 700198, 131091, 42425, 22904, 16496, 18258, 209251]
[3403861, 620001, 777181, 1456818, 1366283, 1190815, 718789, 134490, 42769, 23142, 16808, 18621, 214422]
[3488297, 635936, 796594, 1497297, 1399056, 1221487, 737247, 137920, 43933, 23438, 17247, 19150, 222398]
Heartbeat CPU 0 instructions: 70000000 cycles: 81523455 heartbeat IPC: 0.311869 cumulative IPC: 0.310579 (Simulation time: 0 hr 5 min 43 sec) 
[3574376, 651901, 815311, 1538173, 1433405, 1249972, 755059, 141263, 45039, 24155, 17529, 20953, 228864]
[3661138, 668875, 833573, 1576168, 1467731, 1280118, 770409, 144552, 46074, 25038, 17860, 22195, 238269]
[3745846, 686223, 853215, 1616494, 1504033, 1310463, 786603, 147498, 46444, 25632, 18014, 23014, 244521]
[3826818, 702427, 875882, 1657859, 1541962, 1340178, 805387, 150882, 47202, 26056, 18293, 23628, 247426]
[3908827, 717739, 895956, 1695719, 1582163, 1366747, 824852, 154049, 48724, 26953, 19485, 24073, 254713]
[3991488, 732823, 917713, 1734636, 1619660, 1399629, 842573, 157312, 49972, 27449, 19694, 24268, 258783]
Heartbeat CPU 0 instructions: 80000002 cycles: 113932937 heartbeat IPC: 0.308552 cumulative IPC: 0.309901 (Simulation time: 0 hr 6 min 41 sec) 
[4079108, 748095, 938532, 1773500, 1654782, 1427026, 857496, 160658, 50962, 28234, 20167, 25096, 268344]
[4167809, 763943, 958292, 1811240, 1685704, 1456637, 876241, 164506, 52071, 29296, 20280, 25711, 276270]
[4248366, 782225, 978196, 1853449, 1720737, 1489748, 892851, 167824, 53846, 29774, 20431, 25910, 280643]
[4330407, 799786, 1000263, 1894816, 1761392, 1520581, 908471, 169822, 54764, 30132, 20749, 25973, 282844]
[4413254, 816512, 1023190, 1934368, 1799647, 1548074, 926454, 172921, 55500, 31349, 21164, 26869, 286698]
Heartbeat CPU 0 instructions: 90000002 cycles: 145859903 heartbeat IPC: 0.313215 cumulative IPC: 0.310723 (Simulation time: 0 hr 7 min 38 sec) 
[4499802, 833691, 1040328, 1971993, 1834796, 1579659, 946085, 176852, 56228, 31599, 21436, 27060, 292471]
[4586939, 850304, 1058101, 2009721, 1870642, 1609804, 963548, 181190, 56993, 31985, 22045, 27351, 299377]
[4674581, 865799, 1075524, 2047331, 1905371, 1639544, 982739, 185257, 57806, 32170, 22670, 27570, 307638]
[4758762, 882605, 1093498, 2087598, 1943592, 1669147, 1000978, 188197, 58493, 32469, 23428, 27886, 313347]
[4854048, 896324, 1111775, 2123328, 1972518, 1696639, 1017846, 191836, 60335, 33008, 25527, 31098, 321718]
[4930818, 914767, 1131027, 2163339, 2013486, 1731022, 1037524, 193994, 61525, 33477, 25762, 31154, 324105]
*** Reached end of trace for Core: 0 Repeating trace: ./traces/cadical-med-30K-109B.champsimtrace.xz
Heartbeat CPU 0 instructions: 100000003 cycles: 177677749 heartbeat IPC: 0.314289 cumulative IPC: 0.311429 (Simulation time: 0 hr 8 min 24 sec) 
Finished CPU 0 instructions: 50000002 cycles: 160550067 cumulative IPC: 0.311429 (Simulation time: 0 hr 8 min 24 sec) 

ChampSim completed all CPUs

Region of Interest Statistics

CPU 0 cumulative IPC: 0.311429 instructions: 50000002 cycles: 160550067
L1D TOTAL     ACCESS:   12921056  HIT:   11060243  MISS:    1860813
L1D LOAD      ACCESS:    8515536  HIT:    7003294  MISS:    1512242
L1D RFO       ACCESS:    4405520  HIT:    4056949  MISS:     348571
L1D PREFETCH  ACCESS:          0  HIT:          0  MISS:          0
L1D WRITEBACK ACCESS:          0  HIT:          0  MISS:          0
L1D PREFETCH  REQUESTED:          0  ISSUED:          0  USEFUL:          0  USELESS:          0
L1D AVERAGE MISS LATENCY: 144.948 cycles
L1I TOTAL     ACCESS:    8758742  HIT:    8756784  MISS:       1958
L1I LOAD      ACCESS:    8758742  HIT:    8756784  MISS:       1958
L1I RFO       ACCESS:          0  HIT:          0  MISS:          0
L1I PREFETCH  ACCESS:          0  HIT:          0  MISS:          0
L1I WRITEBACK ACCESS:          0  HIT:          0  MISS:          0
L1I PREFETCH  REQUESTED:          0  ISSUED:          0  USEFUL:          0  USELESS:          0
L1I AVERAGE MISS LATENCY: 226.185 cycles
L2C TOTAL     ACCESS:    2813388  HIT:    1644333  MISS:    1169055
L2C LOAD      ACCESS:    1514119  HIT:     516292  MISS:     997827
L2C RFO       ACCESS:     348371  HIT:     178969  MISS:     169402
L2C PREFETCH  ACCESS:          0  HIT:          0  MISS:          0
L2C WRITEBACK ACCESS:     950898  HIT:     949072  MISS:       1826
L2C PREFETCH  REQUESTED:          0  ISSUED:          0  USEFUL:          0  USELESS:          0
L2C AVERAGE MISS LATENCY: 206.099 cycles
LLC TOTAL     ACCESS:    1840718  HIT:      59409  MISS:    1781309
LLC LOAD      ACCESS:     997819  HIT:      32029  MISS:     965790
LLC RFO       ACCESS:     169398  HIT:      16756  MISS:     152642
LLC PREFETCH  ACCESS:          0  HIT:          0  MISS:          0
LLC WRITEBACK ACCESS:     673501  HIT:      10624  MISS:     662877
LLC PREFETCH  REQUESTED:          0  ISSUED:          0  USEFUL:          0  USELESS:          0
LLC AVERAGE MISS LATENCY: 115.28 cycles
Major fault: 0 Minor fault: 2187

DRAM Statistics
 CHANNEL 0
 RQ ROW_BUFFER_HIT:      37449  ROW_BUFFER_MISS:    1079534
 DBUS_CONGESTED:     583009
 WQ ROW_BUFFER_HIT:     408860  ROW_BUFFER_MISS:     264019  FULL:          0

 AVG_CONGESTED_CYCLE: 6

CPU 0 Branch Prediction Accuracy: 92.9462% MPKI: 10.438 Average ROB Occupancy at Mispredict: 71.1395

Branch types
NOT_BRANCH: 42600839 85.2017%
BRANCH_DIRECT_JUMP: 521075 1.04215%
BRANCH_INDIRECT: 0 0%
BRANCH_CONDITIONAL: 6813244 13.6265%
BRANCH_DIRECT_CALL: 32267 0.064534%
BRANCH_INDIRECT_CALL: 0 0%
BRANCH_RETURN: 32267 0.064534%
BRANCH_OTHER: 0 0%

