
*** ChampSim Multicore Out-of-Order Simulator ***

Warmup Instructions: 50000000
Simulation Instructions: 50000000
Number of CPUs: 1
LLC sets: 32
LLC ways: 32
Off-chip DRAM Size: 4096 MB Channels: 1 Width: 64-bit Data Rate: 3200 MT/s

CPU 0 runs ./traces/cadical-med-30K-137B.champsimtrace.xz
[84357, 12739, 21057, 31869, 34688, 35485, 23720, 7890, 2801, 1103, 233, 49, 9]
[162582, 19718, 40705, 57823, 71776, 74307, 54828, 19612, 5750, 2985, 1479, 304, 131]
[241173, 25110, 61128, 85066, 109896, 116135, 85880, 28217, 7797, 4135, 2430, 728, 305]
[319417, 31942, 79624, 112050, 147927, 156020, 116854, 40320, 9649, 5247, 3433, 1038, 479]
[396137, 39270, 96660, 139353, 186208, 196747, 149228, 51745, 11597, 6515, 4579, 1326, 635]
[473348, 45982, 112694, 165628, 225869, 236435, 182202, 63534, 13508, 8189, 6118, 1668, 825]
[550745, 53932, 127338, 190302, 262295, 280315, 215822, 76094, 15393, 9733, 6966, 2043, 1022]
[626737, 61801, 142680, 215559, 300994, 326568, 249018, 84102, 18078, 10989, 7863, 2341, 1270]
[705546, 68037, 157722, 240401, 339140, 376781, 279319, 90458, 21576, 12103, 8778, 2672, 1467]
Heartbeat CPU 0 instructions: 10000002 cycles: 3052510 heartbeat IPC: 3.27599 cumulative IPC: 3.27599 (Simulation time: 0 hr 0 min 47 sec) 
[785086, 75202, 171436, 266044, 380443, 420886, 313533, 95882, 23885, 13313, 9635, 3006, 1649]
[860210, 82477, 185285, 291422, 423324, 466912, 347316, 101086, 27232, 15000, 10581, 3298, 1857]
[936567, 90282, 198339, 317220, 459268, 513330, 385155, 108006, 30482, 16230, 11432, 3620, 2069]
[1008246, 97432, 211625, 342993, 496609, 556166, 428416, 115185, 35180, 17526, 12364, 3963, 2295]
[1078643, 104900, 225067, 367424, 533971, 598240, 472893, 124264, 39289, 18912, 13397, 4375, 2625]
[1153268, 112213, 238154, 392286, 577180, 640874, 508804, 133444, 41515, 20150, 14471, 4767, 2874]
[1228781, 119914, 250888, 416582, 620035, 683404, 544069, 142973, 43734, 21379, 15960, 5161, 3120]
[1306405, 126966, 263626, 441650, 663696, 728613, 577523, 148534, 46922, 22440, 16766, 5493, 3366]
[1381026, 135001, 276672, 470176, 707784, 774218, 609642, 153526, 49510, 23510, 17572, 5822, 3541]
Heartbeat CPU 0 instructions: 20000001 cycles: 6121133 heartbeat IPC: 3.25879 cumulative IPC: 3.26737 (Simulation time: 0 hr 1 min 40 sec) 
[1458238, 142818, 289147, 499017, 747915, 819644, 641178, 160536, 52471, 24717, 18404, 6144, 3771]
[1538284, 149330, 301930, 527302, 786966, 862110, 673573, 168840, 56079, 25817, 19348, 6437, 3984]
[1616133, 156476, 313137, 555282, 827153, 905603, 706799, 178501, 58481, 27021, 20550, 6701, 4163]
[1689407, 163918, 324987, 583098, 869279, 950160, 739628, 188311, 61202, 28851, 21626, 7076, 4457]
[1764506, 171375, 336870, 609533, 911904, 995390, 771504, 197456, 63773, 30699, 22907, 7410, 4673]
[1839227, 178177, 348107, 635350, 954775, 1041842, 803786, 206358, 66496, 33082, 24237, 7670, 4893]
[1916400, 184114, 360051, 661148, 997003, 1087118, 838374, 213617, 69886, 34201, 25049, 7916, 5123]
[1995700, 189961, 372223, 694154, 1033300, 1128787, 873607, 221988, 71726, 35256, 25799, 8176, 5323]
[2075949, 195824, 384283, 728330, 1066583, 1171155, 910060, 229535, 73372, 36328, 26583, 8449, 5549]
Heartbeat CPU 0 instructions: 30000001 cycles: 9175407 heartbeat IPC: 3.2741 cumulative IPC: 3.26961 (Simulation time: 0 hr 2 min 33 sec) 
[2159437, 201698, 396087, 760676, 1099482, 1215381, 944561, 236508, 75156, 37394, 27274, 8677, 5669]
[2240007, 207678, 408345, 795647, 1132467, 1258111, 979041, 244073, 77334, 38507, 28030, 8921, 5839]
[2316542, 213426, 420080, 824260, 1176693, 1300455, 1011754, 253482, 79453, 39699, 28825, 9251, 6080]
[2393623, 219423, 431747, 853315, 1220175, 1343889, 1046058, 259848, 81337, 41014, 29701, 9596, 6274]
[2469610, 224976, 443605, 880414, 1263337, 1388187, 1079229, 269944, 83647, 42168, 30543, 9883, 6457]
[2549808, 230847, 455258, 907689, 1299380, 1435896, 1114344, 277585, 85785, 43277, 31290, 10177, 6664]
[2629511, 236391, 467024, 934945, 1342818, 1481455, 1145094, 285465, 87813, 44209, 32015, 10455, 6805]
[2707985, 242055, 478979, 962398, 1389356, 1522878, 1177977, 291303, 91234, 45205, 32917, 10689, 7024]
[2781941, 247343, 491646, 990356, 1431840, 1568842, 1210747, 300605, 93778, 46384, 34280, 10989, 7249]
Heartbeat CPU 0 instructions: 40000001 cycles: 12227343 heartbeat IPC: 3.27661 cumulative IPC: 3.27136 (Simulation time: 0 hr 3 min 25 sec) 
[2859411, 252715, 504124, 1017174, 1477427, 1613014, 1241521, 307951, 97295, 47505, 35075, 11310, 7478]
[2938118, 258287, 516655, 1044482, 1517735, 1653805, 1280401, 313954, 100492, 48654, 36009, 11674, 7734]
[3014071, 263547, 528709, 1072945, 1558564, 1698225, 1316095, 321988, 103211, 49927, 36800, 11996, 7922]
[3093809, 269346, 540294, 1099317, 1592718, 1744557, 1355062, 330951, 105105, 51013, 37482, 12274, 8072]
[3172296, 275227, 551646, 1126571, 1628035, 1788154, 1395231, 340787, 107028, 52139, 38141, 12520, 8225]
[3252573, 281293, 562617, 1153660, 1663256, 1835890, 1432119, 348129, 109428, 53188, 38675, 12769, 8403]
[3333026, 286773, 574609, 1180965, 1699102, 1885129, 1467284, 353782, 112127, 54206, 39372, 13016, 8609]
[3410054, 291529, 587273, 1208661, 1737408, 1931676, 1503424, 360650, 115450, 55526, 40194, 13297, 8858]
[3487221, 296280, 599585, 1233720, 1774400, 1978066, 1541858, 369345, 118697, 56853, 41368, 13559, 9048]
Heartbeat CPU 0 instructions: 50000003 cycles: 15269807 heartbeat IPC: 3.28681 cumulative IPC: 3.27444 (Simulation time: 0 hr 4 min 17 sec) 

Warmup complete CPU 0 instructions: 50000003 cycles: 15269807 (Simulation time: 0 hr 4 min 17 sec) 

[3561891, 301276, 612034, 1261317, 1812472, 2022669, 1581545, 377723, 121197, 58126, 42600, 13892, 9258]
[3636575, 306278, 624875, 1288661, 1849870, 2068545, 1618751, 386919, 124798, 59322, 43717, 14156, 9533]
[3713148, 311429, 638051, 1316374, 1887412, 2112714, 1655711, 395750, 127842, 60596, 44769, 14459, 9745]
[3791287, 316385, 651292, 1342241, 1923873, 2157897, 1693069, 404328, 131644, 61777, 45597, 14678, 9932]
[3865782, 321487, 663774, 1368505, 1962908, 2202548, 1732326, 413610, 133953, 63588, 46464, 14908, 10147]
[3944609, 326658, 676514, 1394044, 1997331, 2247587, 1773328, 421733, 136133, 65082, 47421, 15215, 10345]
[4020778, 331532, 689455, 1419101, 2034542, 2290022, 1817784, 429505, 138132, 66491, 48503, 15591, 10564]
[4098038, 336218, 702830, 1445436, 2074358, 2333532, 1856551, 436244, 140112, 68309, 49630, 15983, 10759]
[4176444, 341213, 715947, 1471528, 2115095, 2375489, 1894448, 444075, 142328, 69556, 50612, 16316, 10949]
Heartbeat CPU 0 instructions: 60000000 cycles: 30224049 heartbeat IPC: 0.668706 cumulative IPC: 0.668706 (Simulation time: 0 hr 5 min 11 sec) 
[4254717, 345767, 729317, 1497842, 2157753, 2418301, 1929093, 452109, 144430, 71091, 51664, 16738, 11178]
[4334039, 350589, 742402, 1522848, 2196959, 2462398, 1965263, 461569, 146513, 72308, 52512, 17163, 11437]
[4409510, 355456, 755310, 1548345, 2235108, 2505886, 2007063, 468648, 149668, 74420, 53320, 17577, 11689]
[4482563, 360500, 768048, 1576535, 2273741, 2546988, 2048112, 479407, 152354, 75601, 54213, 17969, 11969]
[4559383, 366077, 780686, 1604383, 2311178, 2590893, 2086408, 488505, 154357, 76868, 54909, 18243, 12110]
[4633773, 371311, 793271, 1632372, 2352194, 2636961, 2122610, 495624, 156459, 78760, 55740, 18593, 12332]
[4709093, 376402, 805473, 1659240, 2392861, 2683884, 2159125, 503679, 158379, 79890, 56522, 18905, 12547]
[4783118, 381568, 817295, 1685051, 2435850, 2727323, 2197080, 513460, 160480, 81266, 57403, 19279, 12827]
[4857453, 386569, 829351, 1714468, 2479997, 2771052, 2228809, 524346, 162372, 82694, 58205, 19621, 13063]
[4932200, 391712, 840786, 1739768, 2522689, 2823286, 2258974, 533332, 164237, 84652, 59078, 19975, 13311]
Heartbeat CPU 0 instructions: 70000001 cycles: 45254031 heartbeat IPC: 0.665337 cumulative IPC: 0.667017 (Simulation time: 0 hr 6 min 6 sec) 
[5010693, 396863, 852879, 1767147, 2565057, 2873923, 2288094, 539636, 166264, 85645, 59905, 20349, 13545]
[5086891, 401822, 864831, 1795672, 2611557, 2920119, 2317408, 547765, 168099, 86708, 60624, 20722, 13782]
[5164523, 406893, 877678, 1821526, 2657267, 2965782, 2347425, 556695, 169979, 87798, 61362, 21083, 13989]
[5239667, 411927, 890611, 1848887, 2694968, 3013018, 2383621, 566341, 171825, 88934, 62444, 21549, 14208]
[5314904, 417146, 904315, 1875228, 2742404, 3053387, 2417865, 574794, 173983, 90218, 63275, 21953, 14528]
[5393797, 422669, 916663, 1900651, 2782652, 3099139, 2453581, 582423, 175980, 91354, 64024, 22307, 14760]
[5469961, 427535, 929410, 1926244, 2825524, 3144061, 2488545, 591478, 178215, 92562, 64806, 22649, 15010]
[5546902, 431993, 942061, 1951501, 2866021, 3191136, 2523680, 600716, 180285, 93683, 65748, 23024, 15250]
[5621954, 436441, 954411, 1975953, 2902882, 3238677, 2566598, 607993, 182877, 94756, 66586, 23394, 15478]
Heartbeat CPU 0 instructions: 80000000 cycles: 60453040 heartbeat IPC: 0.657938 cumulative IPC: 0.663963 (Simulation time: 0 hr 7 min 0 sec) 
[5699625, 441038, 967265, 2000637, 2937347, 3292689, 2604504, 613633, 184665, 95694, 67385, 23776, 15742]
[5775206, 445461, 980329, 2025183, 2973000, 3344106, 2642205, 622973, 186468, 96747, 68212, 24136, 15974]
[5853356, 450383, 993107, 2049273, 3011516, 3391012, 2683094, 628558, 188293, 97848, 68953, 24425, 16182]
[5927707, 454812, 1005545, 2074874, 3049785, 3444146, 2717161, 637048, 191093, 98919, 69772, 24756, 16382]
[6008998, 459551, 1017951, 2099471, 3089760, 3492071, 2751286, 643559, 193519, 99853, 70505, 24970, 16506]
[6090574, 464626, 1029405, 2125097, 3129602, 3537229, 2787793, 650212, 195716, 100786, 71154, 25163, 16643]
[6168055, 469379, 1041330, 2151413, 3169145, 3585413, 2823849, 656319, 198644, 102304, 71925, 25414, 16810]
[6243864, 473931, 1053295, 2176834, 3211668, 3627916, 2863537, 664513, 200484, 104268, 72911, 25730, 17049]
[6321282, 478433, 1065614, 2201584, 3251374, 3671645, 2903355, 673297, 202315, 106086, 73775, 25941, 17299]
Heartbeat CPU 0 instructions: 90000001 cycles: 75385390 heartbeat IPC: 0.669687 cumulative IPC: 0.665385 (Simulation time: 0 hr 7 min 52 sec) 
[6399177, 483428, 1077240, 2228205, 3288495, 3717470, 2942019, 681650, 204067, 108048, 74543, 26198, 17460]
[6476866, 488300, 1089174, 2258351, 3325804, 3763566, 2977832, 688584, 206626, 109228, 75422, 26559, 17688]
[6551656, 493092, 1100987, 2286602, 3361786, 3808092, 3016967, 699015, 209012, 111574, 76275, 26940, 18002]
[6628004, 498203, 1112651, 2312519, 3396806, 3851698, 3059007, 709494, 211153, 113920, 77037, 27267, 18241]
[6705464, 503041, 1124301, 2337802, 3433504, 3892133, 3106511, 716939, 213063, 115313, 77830, 27593, 18506]
[6784760, 508023, 1136024, 2360639, 3470243, 3933339, 3152752, 725249, 215261, 116395, 78597, 27886, 18832]
[6863291, 512888, 1148288, 2384723, 3506871, 3976326, 3195239, 733560, 218435, 117768, 79312, 28205, 19094]
[6941030, 517579, 1160617, 2409207, 3545923, 4019290, 3236329, 740403, 222421, 119292, 80075, 28450, 19384]
[7016173, 522506, 1172265, 2433120, 3584494, 4062533, 3279299, 750823, 224863, 120501, 80880, 28776, 19767]
*** Reached end of trace for Core: 0 Repeating trace: ./traces/cadical-med-30K-137B.champsimtrace.xz
Heartbeat CPU 0 instructions: 100000003 cycles: 90139976 heartbeat IPC: 0.677756 cumulative IPC: 0.667823 (Simulation time: 0 hr 8 min 35 sec) 
Finished CPU 0 instructions: 50000000 cycles: 74870169 cumulative IPC: 0.667823 (Simulation time: 0 hr 8 min 35 sec) 

ChampSim completed all CPUs

Region of Interest Statistics

CPU 0 cumulative IPC: 0.667823 instructions: 50000000 cycles: 74870169
L1D TOTAL     ACCESS:    9348431  HIT:    8178557  MISS:    1169874
L1D LOAD      ACCESS:    5321710  HIT:    4164612  MISS:    1157098
L1D RFO       ACCESS:    4026721  HIT:    4013945  MISS:      12776
L1D PREFETCH  ACCESS:          0  HIT:          0  MISS:          0
L1D WRITEBACK ACCESS:          0  HIT:          0  MISS:          0
L1D PREFETCH  REQUESTED:          0  ISSUED:          0  USEFUL:          0  USELESS:          0
L1D AVERAGE MISS LATENCY: 76.9501 cycles
L1I TOTAL     ACCESS:    9059769  HIT:    9059769  MISS:          0
L1I LOAD      ACCESS:    9059769  HIT:    9059769  MISS:          0
L1I RFO       ACCESS:          0  HIT:          0  MISS:          0
L1I PREFETCH  ACCESS:          0  HIT:          0  MISS:          0
L1I WRITEBACK ACCESS:          0  HIT:          0  MISS:          0
L1I PREFETCH  REQUESTED:          0  ISSUED:          0  USEFUL:          0  USELESS:          0
L1I AVERAGE MISS LATENCY: -nan cycles
L2C TOTAL     ACCESS:    1571940  HIT:    1137393  MISS:     434547
L2C LOAD      ACCESS:    1156977  HIT:     732102  MISS:     424875
L2C RFO       ACCESS:      12776  HIT:       5443  MISS:       7333
L2C PREFETCH  ACCESS:          0  HIT:          0  MISS:          0
L2C WRITEBACK ACCESS:     402187  HIT:     399848  MISS:       2339
L2C PREFETCH  REQUESTED:          0  ISSUED:          0  USEFUL:          0  USELESS:          0
L2C AVERAGE MISS LATENCY: 166.616 cycles
LLC TOTAL     ACCESS:     602746  HIT:      94421  MISS:     508325
LLC LOAD      ACCESS:     424870  HIT:      63630  MISS:     361240
LLC RFO       ACCESS:       7333  HIT:        498  MISS:       6835
LLC PREFETCH  ACCESS:          0  HIT:          0  MISS:          0
LLC WRITEBACK ACCESS:     170543  HIT:      30293  MISS:     140250
LLC PREFETCH  REQUESTED:          0  ISSUED:          0  USEFUL:          0  USELESS:          0
LLC AVERAGE MISS LATENCY: 116.925 cycles
Major fault: 0 Minor fault: 1160

DRAM Statistics
 CHANNEL 0
 RQ ROW_BUFFER_HIT:      51187  ROW_BUFFER_MISS:     316380
 DBUS_CONGESTED:     130692
 WQ ROW_BUFFER_HIT:      94307  ROW_BUFFER_MISS:      66740  FULL:          0

 AVG_CONGESTED_CYCLE: 5

CPU 0 Branch Prediction Accuracy: 97.4527% MPKI: 5.99484 Average ROB Occupancy at Mispredict: 44.6447

Branch types
NOT_BRANCH: 38232664 76.4653%
BRANCH_DIRECT_JUMP: 1148418 2.29684%
BRANCH_INDIRECT: 0 0%
BRANCH_CONDITIONAL: 10514920 21.0298%
BRANCH_DIRECT_CALL: 51859 0.103718%
BRANCH_INDIRECT_CALL: 0 0%
BRANCH_RETURN: 51859 0.103718%
BRANCH_OTHER: 0 0%

