
*** ChampSim Multicore Out-of-Order Simulator ***

Warmup Instructions: 50000000
Simulation Instructions: 50000000
Number of CPUs: 1
LLC sets: 32
LLC ways: 32
Off-chip DRAM Size: 4096 MB Channels: 1 Width: 64-bit Data Rate: 3200 MT/s

CPU 0 runs ./traces/cadical-med-30K-1463B.champsimtrace.xz
[90723, 18467, 21298, 31076, 41455, 34316, 12069, 3996, 1213, 1254, 132, 0, 1]
[166654, 33104, 46323, 65126, 95252, 70342, 24685, 6415, 1932, 1555, 569, 1, 42]
[240130, 45656, 69929, 99253, 146493, 108960, 38379, 10366, 5241, 2119, 1155, 31, 288]
[311266, 58189, 92423, 134542, 202499, 144179, 49298, 16645, 8642, 2645, 2151, 626, 895]
[377431, 79815, 115345, 168245, 255641, 171675, 64900, 20996, 12460, 3842, 3621, 1075, 4954]
Heartbeat CPU 0 instructions: 10000001 cycles: 3515463 heartbeat IPC: 2.84458 cumulative IPC: 2.84458 (Simulation time: 0 hr 0 min 43 sec) 
[443653, 99030, 137468, 198515, 301635, 202549, 83338, 28930, 17717, 6756, 8175, 2038, 6196]
[512325, 117759, 157417, 229518, 350673, 233039, 103369, 35067, 22362, 8245, 11868, 2125, 8233]
[576529, 140700, 179752, 264014, 402256, 266456, 119047, 39775, 24485, 9224, 12533, 2145, 11084]
[650613, 161238, 207611, 291612, 438134, 297175, 135958, 46832, 28431, 10919, 13989, 2203, 19285]
[717813, 185555, 228597, 323349, 487262, 330555, 153453, 51310, 31009, 12677, 15874, 2424, 20122]
[793683, 214077, 248664, 344445, 520221, 360551, 167419, 58987, 35049, 16123, 20630, 4459, 31692]
Heartbeat CPU 0 instructions: 20000000 cycles: 6986042 heartbeat IPC: 2.88136 cumulative IPC: 2.86285 (Simulation time: 0 hr 1 min 29 sec) 
[866661, 242684, 269278, 367960, 564406, 400882, 185069, 63808, 36908, 17195, 20994, 4462, 31693]
[930974, 266149, 291155, 401262, 616383, 436779, 198117, 68644, 39180, 18333, 21134, 4504, 35386]
[1000712, 287720, 314096, 427367, 657786, 464570, 219301, 72899, 43545, 20461, 21950, 5342, 48251]
[1071620, 312624, 333624, 453456, 701960, 505100, 237697, 78281, 47119, 21942, 22412, 5911, 48254]
[1143614, 335818, 357339, 487101, 744777, 534483, 250762, 83601, 50124, 23547, 22727, 5980, 56127]
[1217759, 359182, 380051, 517676, 782745, 565930, 265253, 89956, 53465, 25245, 23228, 6145, 65365]
Heartbeat CPU 0 instructions: 30000001 cycles: 10449618 heartbeat IPC: 2.88719 cumulative IPC: 2.87092 (Simulation time: 0 hr 2 min 15 sec) 
[1287361, 385029, 401148, 554013, 834743, 598471, 278048, 92643, 54331, 25477, 23267, 6177, 67292]
[1351158, 408542, 420285, 587540, 881577, 630058, 295206, 100723, 60051, 27373, 23707, 6242, 71538]
[1416003, 433379, 440245, 620701, 926528, 661296, 315205, 106489, 62628, 30308, 24163, 6301, 76754]
[1484238, 456513, 459265, 650789, 970651, 693567, 335213, 115345, 66804, 33083, 24960, 6304, 79268]
[1555391, 478766, 484046, 682766, 1015408, 723680, 350106, 121128, 70117, 35665, 25848, 6399, 82680]
[1627246, 501576, 511696, 717279, 1060044, 750902, 365266, 125489, 71674, 37150, 26388, 6414, 86876]
Heartbeat CPU 0 instructions: 40000001 cycles: 13908552 heartbeat IPC: 2.89106 cumulative IPC: 2.87593 (Simulation time: 0 hr 3 min 2 sec) 
[1695490, 527333, 531779, 753468, 1112090, 781216, 381262, 130369, 72532, 38125, 26531, 6418, 87387]
[1773113, 553626, 550573, 791468, 1148752, 807586, 395504, 133304, 76026, 43003, 27386, 6544, 93115]
[1844675, 579733, 567402, 826667, 1193622, 839152, 411833, 136925, 81968, 43806, 27716, 6667, 95834]
[1914834, 606645, 584630, 859592, 1244502, 873388, 427461, 141294, 84235, 44594, 28092, 6670, 96063]
[1985239, 634170, 609175, 894705, 1290133, 903209, 439518, 146272, 87206, 45131, 28557, 6741, 97944]
[2059292, 656729, 638314, 926932, 1337174, 931842, 450429, 149190, 89393, 46136, 29019, 6810, 102740]
Heartbeat CPU 0 instructions: 50000003 cycles: 17418983 heartbeat IPC: 2.84865 cumulative IPC: 2.87043 (Simulation time: 0 hr 3 min 47 sec) 

Warmup complete CPU 0 instructions: 50000003 cycles: 17418983 (Simulation time: 0 hr 3 min 47 sec) 

[2134426, 685079, 658809, 953001, 1374882, 969558, 466252, 155191, 93224, 48002, 29334, 6881, 105361]
[2202875, 707585, 680294, 987937, 1424581, 1004292, 480246, 159743, 95712, 49126, 29664, 6884, 107061]
[2275857, 732206, 706701, 1017761, 1470961, 1036453, 492824, 163554, 97628, 49786, 30117, 7058, 111094]
[2345448, 755831, 726305, 1053003, 1523636, 1071801, 504978, 167363, 99978, 50411, 30690, 7094, 111462]
[2419687, 780060, 751473, 1086503, 1566114, 1108122, 517143, 171558, 102086, 51336, 30986, 7470, 111462]
[2489269, 806590, 770965, 1117732, 1613938, 1143632, 534290, 176215, 104552, 52617, 31240, 7498, 111462]
Heartbeat CPU 0 instructions: 60000000 cycles: 57658903 heartbeat IPC: 0.248509 cumulative IPC: 0.248509 (Simulation time: 0 hr 4 min 48 sec) 
[2563385, 828823, 795971, 1148423, 1658703, 1177737, 550465, 181374, 106522, 53994, 31633, 7505, 111465]
[2631247, 851718, 819542, 1181903, 1713644, 1212576, 563721, 183835, 107607, 55336, 31832, 7573, 111466]
[2707868, 877160, 849668, 1208132, 1749524, 1244525, 584518, 189121, 109222, 56819, 32336, 7637, 111470]
[2779917, 900842, 867694, 1239247, 1796604, 1284085, 602576, 191606, 110759, 57868, 33505, 7825, 111472]
[2857738, 923722, 891722, 1270892, 1836377, 1313958, 615673, 195436, 112802, 58504, 34523, 12325, 116328]
[2928716, 949394, 910945, 1301682, 1875789, 1344231, 634543, 202403, 117069, 62134, 36117, 14847, 118130]
Heartbeat CPU 0 instructions: 70000001 cycles: 96660251 heartbeat IPC: 0.256401 cumulative IPC: 0.252394 (Simulation time: 0 hr 5 min 52 sec) 
[2997535, 974592, 927970, 1332892, 1921884, 1375103, 653552, 208733, 120699, 66281, 37940, 16108, 118711]
[3066017, 994872, 943011, 1362108, 1964490, 1408058, 672504, 215764, 125921, 73205, 40042, 19960, 122048]
[3138650, 1013940, 959303, 1396663, 2002913, 1438857, 690564, 221969, 130320, 75388, 42012, 25972, 127449]
[3207749, 1038881, 975131, 1426292, 2044329, 1478818, 711503, 228524, 134986, 76692, 43509, 26136, 127450]
[3278865, 1058186, 992944, 1460248, 2090350, 1506588, 729861, 234915, 139069, 79100, 46434, 29473, 129967]
[3342362, 1079440, 1011224, 1492067, 2137553, 1535864, 750140, 242648, 145617, 82943, 48546, 31755, 131841]
Heartbeat CPU 0 instructions: 80000003 cycles: 133244402 heartbeat IPC: 0.273342 cumulative IPC: 0.25901 (Simulation time: 0 hr 6 min 51 sec) 
[3413507, 1101515, 1030229, 1527379, 2174644, 1568972, 769053, 248182, 148095, 85282, 49944, 35900, 135298]
[3479597, 1122318, 1049887, 1567707, 2222327, 1602618, 783061, 252425, 151268, 86385, 50331, 38521, 137555]
[3551936, 1143184, 1072978, 1609451, 2274152, 1628879, 791307, 254916, 152262, 87672, 50638, 38522, 144103]
[3618223, 1165903, 1091666, 1637967, 2321328, 1668225, 809756, 262533, 155336, 90315, 51841, 38799, 144108]
[3685527, 1188892, 1114017, 1672026, 2369771, 1700608, 823591, 267671, 158683, 92215, 53902, 39224, 145873]
[3755868, 1210727, 1136384, 1708410, 2410497, 1732436, 837989, 273091, 163301, 94704, 56924, 39306, 148363]
Heartbeat CPU 0 instructions: 90000001 cycles: 171016981 heartbeat IPC: 0.264742 cumulative IPC: 0.26042 (Simulation time: 0 hr 7 min 48 sec) 
[3823142, 1234212, 1154182, 1742164, 2451283, 1765144, 854760, 279799, 168245, 97524, 59807, 39459, 154279]
[3889174, 1258917, 1175168, 1769608, 2490982, 1802362, 872369, 287153, 172633, 100090, 61322, 39670, 160552]
[3951641, 1283840, 1196844, 1797977, 2529124, 1835849, 893950, 295780, 178168, 102827, 64267, 40240, 165493]
[4015134, 1308409, 1219709, 1824876, 2567489, 1867403, 917580, 301969, 183121, 104952, 66313, 40784, 174261]
[4078134, 1332559, 1242543, 1856619, 2606138, 1897772, 936991, 307814, 189218, 109689, 67936, 42215, 180372]
*** Reached end of trace for Core: 0 Repeating trace: ./traces/cadical-med-30K-1463B.champsimtrace.xz
Heartbeat CPU 0 instructions: 100000003 cycles: 206062972 heartbeat IPC: 0.285339 cumulative IPC: 0.26505 (Simulation time: 0 hr 8 min 38 sec) 
Finished CPU 0 instructions: 50000000 cycles: 188643989 cumulative IPC: 0.26505 (Simulation time: 0 hr 8 min 38 sec) 

ChampSim completed all CPUs

Region of Interest Statistics

CPU 0 cumulative IPC: 0.26505 instructions: 50000000 cycles: 188643989
L1D TOTAL     ACCESS:   13254485  HIT:   11435946  MISS:    1818539
L1D LOAD      ACCESS:    8587241  HIT:    7084753  MISS:    1502488
L1D RFO       ACCESS:    4667244  HIT:    4351193  MISS:     316051
L1D PREFETCH  ACCESS:          0  HIT:          0  MISS:          0
L1D WRITEBACK ACCESS:          0  HIT:          0  MISS:          0
L1D PREFETCH  REQUESTED:          0  ISSUED:          0  USEFUL:          0  USELESS:          0
L1D AVERAGE MISS LATENCY: 161.864 cycles
L1I TOTAL     ACCESS:    8714780  HIT:    8714707  MISS:         73
L1I LOAD      ACCESS:    8714780  HIT:    8714707  MISS:         73
L1I RFO       ACCESS:          0  HIT:          0  MISS:          0
L1I PREFETCH  ACCESS:          0  HIT:          0  MISS:          0
L1I WRITEBACK ACCESS:          0  HIT:          0  MISS:          0
L1I PREFETCH  REQUESTED:          0  ISSUED:          0  USEFUL:          0  USELESS:          0
L1I AVERAGE MISS LATENCY: 227.397 cycles
L2C TOTAL     ACCESS:    2839546  HIT:    1560428  MISS:    1279118
L2C LOAD      ACCESS:    1502498  HIT:     402417  MISS:    1100081
L2C RFO       ACCESS:     315914  HIT:     138652  MISS:     177262
L2C PREFETCH  ACCESS:          0  HIT:          0  MISS:          0
L2C WRITEBACK ACCESS:    1021134  HIT:    1019359  MISS:       1775
L2C PREFETCH  REQUESTED:          0  ISSUED:          0  USEFUL:          0  USELESS:          0
L2C AVERAGE MISS LATENCY: 205.39 cycles
LLC TOTAL     ACCESS:    2085702  HIT:      53866  MISS:    2031836
LLC LOAD      ACCESS:    1100075  HIT:      29333  MISS:    1070742
LLC RFO       ACCESS:     177255  HIT:      16279  MISS:     160976
LLC PREFETCH  ACCESS:          0  HIT:          0  MISS:          0
LLC WRITEBACK ACCESS:     808372  HIT:       8254  MISS:     800118
LLC PREFETCH  REQUESTED:          0  ISSUED:          0  USEFUL:          0  USELESS:          0
LLC AVERAGE MISS LATENCY: 109.484 cycles
Major fault: 0 Minor fault: 5514

DRAM Statistics
 CHANNEL 0
 RQ ROW_BUFFER_HIT:      43316  ROW_BUFFER_MISS:    1187690
 DBUS_CONGESTED:     641062
 WQ ROW_BUFFER_HIT:     386024  ROW_BUFFER_MISS:     421910  FULL:          0

 AVG_CONGESTED_CYCLE: 6

CPU 0 Branch Prediction Accuracy: 91.9597% MPKI: 12.0787 Average ROB Occupancy at Mispredict: 62.1378

Branch types
NOT_BRANCH: 42488674 84.9773%
BRANCH_DIRECT_JUMP: 461068 0.922136%
BRANCH_INDIRECT: 0 0%
BRANCH_CONDITIONAL: 7026894 14.0538%
BRANCH_DIRECT_CALL: 11674 0.023348%
BRANCH_INDIRECT_CALL: 0 0%
BRANCH_RETURN: 11674 0.023348%
BRANCH_OTHER: 0 0%

