
*** ChampSim Multicore Out-of-Order Simulator ***

Warmup Instructions: 50000000
Simulation Instructions: 50000000
Number of CPUs: 1
LLC sets: 32
LLC ways: 32
Off-chip DRAM Size: 4096 MB Channels: 1 Width: 64-bit Data Rate: 3200 MT/s

CPU 0 runs ./traces/cadical-low-60K-1186B.champsimtrace.xz
[42373, 5742, 19461, 18968, 32536, 50581, 44755, 20831, 11063, 6380, 2387, 655, 268]
[74093, 11008, 31864, 35473, 61953, 99216, 92562, 48842, 29501, 18955, 4362, 1724, 2447]
[132408, 26637, 48968, 59671, 93653, 135586, 125222, 68866, 40820, 23430, 6896, 3061, 2782]
[188172, 42126, 70858, 85738, 124201, 168279, 151860, 90995, 51964, 29818, 9443, 5821, 4725]
[229085, 49073, 87859, 108914, 153422, 211768, 188941, 115190, 69837, 36186, 12063, 8522, 9140]
[273604, 57416, 103485, 128563, 189306, 257563, 229840, 132771, 83909, 45443, 14071, 9274, 10755]
Heartbeat CPU 0 instructions: 10000001 cycles: 3428085 heartbeat IPC: 2.91708 cumulative IPC: 2.91708 (Simulation time: 0 hr 0 min 40 sec) 
[311996, 64690, 119696, 152363, 215118, 298120, 281573, 156812, 96756, 53976, 18800, 10001, 12099]
[375605, 80390, 139976, 183475, 247710, 325305, 311396, 169571, 105749, 61264, 20168, 10472, 16919]
[407504, 85645, 153201, 204129, 280149, 373140, 361368, 189735, 119481, 72999, 26408, 11728, 18513]
[456550, 96669, 171802, 229449, 311531, 411394, 396535, 213367, 129906, 78102, 29241, 13752, 21702]
[519823, 110791, 194050, 250884, 338129, 438638, 425270, 230287, 139121, 86404, 34413, 16478, 31712]
[573990, 123713, 212348, 278974, 371373, 477615, 464486, 246416, 147327, 89174, 35657, 16698, 34229]
Heartbeat CPU 0 instructions: 20000002 cycles: 6906138 heartbeat IPC: 2.87517 cumulative IPC: 2.89597 (Simulation time: 0 hr 1 min 23 sec) 
[607023, 128976, 226096, 295610, 404961, 528260, 514729, 271107, 159642, 93546, 41468, 17993, 38589]
[647184, 136657, 240805, 318986, 438357, 573855, 557139, 297584, 173025, 98813, 42859, 18549, 40187]
[672200, 138935, 253026, 334898, 464887, 632684, 611455, 328709, 189326, 108409, 44553, 19074, 41844]
[712552, 146414, 269034, 360928, 495639, 668160, 649500, 355384, 204559, 123679, 46448, 20988, 42715]
[758809, 158743, 290281, 394062, 527641, 702003, 681649, 372417, 216199, 133592, 49545, 23655, 43404]
[784646, 162908, 304324, 414008, 559365, 744989, 732672, 401788, 234283, 144691, 53216, 24904, 46206]
[823738, 169807, 323511, 438067, 593312, 781829, 774027, 425080, 248592, 153301, 59058, 25429, 48249]
Heartbeat CPU 0 instructions: 30000000 cycles: 10261183 heartbeat IPC: 2.98059 cumulative IPC: 2.92364 (Simulation time: 0 hr 2 min 8 sec) 
[873262, 186592, 344292, 472762, 620784, 810713, 803733, 445280, 259894, 160963, 63994, 27937, 49794]
[901599, 192105, 361954, 487418, 649661, 855794, 853887, 470489, 276031, 170156, 69421, 31155, 56330]
[960410, 212593, 384777, 509988, 675481, 881820, 883497, 488592, 288829, 175524, 72949, 31707, 65833]
[991452, 220158, 409306, 526414, 707255, 941356, 931615, 510053, 298107, 178217, 75181, 32462, 66424]
[1021276, 225868, 421952, 542156, 734470, 992949, 973305, 539049, 317616, 188215, 80603, 32589, 73952]
[1071434, 243029, 442439, 567461, 765946, 1028075, 1001223, 560344, 330264, 194540, 84705, 33568, 76972]
Heartbeat CPU 0 instructions: 40000001 cycles: 13716246 heartbeat IPC: 2.8943 cumulative IPC: 2.91625 (Simulation time: 0 hr 2 min 53 sec) 
[1099976, 248128, 456635, 580146, 795503, 1077062, 1060575, 584149, 346019, 203149, 88646, 35547, 80465]
[1136903, 256880, 471172, 601186, 821431, 1116671, 1109105, 610605, 362135, 213222, 90941, 36910, 84839]
[1173302, 267306, 492143, 627468, 852637, 1149411, 1148287, 628639, 376725, 223704, 95404, 40126, 92848]
[1251347, 305738, 512334, 653759, 873006, 1166834, 1172887, 638959, 388639, 227652, 98266, 41374, 93205]
[1310700, 322103, 531611, 673144, 914512, 1220025, 1199045, 647557, 393989, 230673, 101189, 41588, 93864]
[1341997, 326194, 547165, 687125, 949612, 1283890, 1242910, 679303, 405675, 232567, 102174, 42159, 95229]
[1370840, 330438, 561214, 701452, 983945, 1344254, 1290907, 706808, 417759, 240420, 104415, 42519, 97029]
Heartbeat CPU 0 instructions: 50000001 cycles: 17202980 heartbeat IPC: 2.86801 cumulative IPC: 2.90647 (Simulation time: 0 hr 3 min 38 sec) 

Warmup complete CPU 0 instructions: 50000001 cycles: 17202980 (Simulation time: 0 hr 3 min 38 sec) 

[1400172, 334839, 573626, 717986, 1014361, 1397243, 1340702, 738296, 435854, 247979, 106989, 42798, 97155]
[1439729, 342713, 593897, 744203, 1046091, 1440095, 1376481, 761147, 451053, 257567, 109965, 42892, 98167]
[1524572, 373736, 628588, 768826, 1064212, 1462194, 1395261, 772372, 456198, 260598, 111561, 43575, 98307]
[1642799, 424780, 669928, 794105, 1073381, 1468306, 1397666, 773713, 456919, 260812, 111659, 43595, 98337]
[1710771, 476661, 715997, 831033, 1096645, 1481226, 1408230, 776484, 459908, 261368, 111742, 43597, 98338]
[1806137, 515511, 755864, 862211, 1115990, 1494202, 1417399, 780741, 463262, 262312, 112368, 43664, 98339]
Heartbeat CPU 0 instructions: 60000001 cycles: 46074495 heartbeat IPC: 0.346362 cumulative IPC: 0.346362 (Simulation time: 0 hr 4 min 33 sec) 
[1914645, 563029, 795456, 894749, 1126106, 1501640, 1421956, 783524, 465122, 262889, 112753, 43791, 98340]
[1983257, 612116, 849132, 934170, 1145139, 1513748, 1429360, 787144, 467100, 263552, 113149, 43792, 98341]
[2077864, 653973, 888720, 966751, 1162292, 1525790, 1438618, 792072, 469438, 264604, 113742, 43793, 98343]
[2176624, 699375, 935882, 999909, 1172920, 1531830, 1443468, 796082, 471584, 267012, 115108, 43863, 98343]
[2268407, 744278, 988075, 1033856, 1188983, 1539961, 1448920, 798444, 472624, 267134, 115110, 43865, 98343]
[2346885, 790477, 1048671, 1073330, 1206993, 1547608, 1452553, 799618, 473091, 267367, 115188, 43876, 98343]
Heartbeat CPU 0 instructions: 70000001 cycles: 78666708 heartbeat IPC: 0.306822 cumulative IPC: 0.325395 (Simulation time: 0 hr 5 min 35 sec) 
[2390827, 831283, 1114916, 1127762, 1235753, 1558280, 1459472, 802717, 474074, 267464, 115231, 43877, 98344]
[2451402, 878631, 1165172, 1173521, 1257436, 1571483, 1468402, 806967, 476551, 268573, 115635, 43880, 98347]
[2544825, 927647, 1217072, 1205909, 1269619, 1577605, 1472514, 809470, 479092, 269617, 116261, 44020, 98349]
[2627102, 973044, 1269894, 1243869, 1284768, 1587973, 1477721, 813165, 481301, 270293, 116498, 44023, 98349]
[2699322, 1016775, 1317514, 1277272, 1304563, 1603926, 1489480, 818624, 485030, 272354, 116764, 44024, 98352]
[2806457, 1064365, 1360099, 1302318, 1318057, 1610908, 1496970, 821457, 486515, 273579, 116896, 44025, 98354]
[2920531, 1110732, 1402023, 1329012, 1330120, 1618015, 1500357, 823431, 487556, 274086, 117732, 44051, 98354]
Heartbeat CPU 0 instructions: 80000002 cycles: 107147398 heartbeat IPC: 0.351115 cumulative IPC: 0.333539 (Simulation time: 0 hr 6 min 30 sec) 
[3048350, 1150253, 1436122, 1351878, 1342459, 1625225, 1505334, 827128, 488989, 275336, 118513, 44054, 98359]
[3140278, 1194293, 1486660, 1384811, 1357656, 1633866, 1511636, 830658, 490772, 276215, 118727, 44063, 98365]
[3216737, 1246279, 1541142, 1423676, 1374345, 1641468, 1515279, 834125, 492523, 277222, 118773, 44063, 98368]
[3343953, 1293551, 1580746, 1445415, 1382980, 1645533, 1518124, 836221, 493925, 277989, 119128, 44063, 98372]
[3440247, 1338700, 1620112, 1480748, 1396564, 1655065, 1525136, 841837, 496586, 279262, 119304, 44066, 98373]
[3506026, 1394746, 1672752, 1522293, 1414299, 1664214, 1530493, 845317, 499204, 280555, 119654, 44073, 98374]
Heartbeat CPU 0 instructions: 90000001 cycles: 134876219 heartbeat IPC: 0.360636 cumulative IPC: 0.339924 (Simulation time: 0 hr 7 min 25 sec) 
[3587091, 1435205, 1721573, 1557543, 1435111, 1676371, 1538212, 850126, 501960, 281892, 120017, 44447, 98452]
[3679192, 1476832, 1767948, 1591356, 1450272, 1687698, 1544538, 855020, 505010, 283066, 120164, 44450, 98454]
[3777625, 1520163, 1814143, 1619491, 1466423, 1697617, 1551876, 859502, 506569, 283504, 120179, 44453, 98455]
[3826396, 1567983, 1869654, 1668423, 1488874, 1710743, 1560043, 865269, 509639, 285204, 120775, 44539, 98458]
[3913130, 1615164, 1918686, 1701825, 1502649, 1718546, 1565887, 869990, 513443, 287392, 121815, 44887, 98586]
[3993712, 1671752, 1969622, 1735272, 1519319, 1723124, 1571289, 873140, 515743, 288917, 122632, 44890, 98588]
Heartbeat CPU 0 instructions: 100000001 cycles: 164107814 heartbeat IPC: 0.342096 cumulative IPC: 0.340356 (Simulation time: 0 hr 8 min 17 sec) 
Finished CPU 0 instructions: 50000000 cycles: 146904834 cumulative IPC: 0.340356 (Simulation time: 0 hr 8 min 17 sec) 

ChampSim completed all CPUs

Region of Interest Statistics

CPU 0 cumulative IPC: 0.340356 instructions: 50000000 cycles: 146904834
L1D TOTAL     ACCESS:   11303551  HIT:   10049183  MISS:    1254368
L1D LOAD      ACCESS:    7900795  HIT:    6773296  MISS:    1127499
L1D RFO       ACCESS:    3402756  HIT:    3275887  MISS:     126869
L1D PREFETCH  ACCESS:          0  HIT:          0  MISS:          0
L1D WRITEBACK ACCESS:          0  HIT:          0  MISS:          0
L1D PREFETCH  REQUESTED:          0  ISSUED:          0  USEFUL:          0  USELESS:          0
L1D AVERAGE MISS LATENCY: 170.404 cycles
L1I TOTAL     ACCESS:    9183373  HIT:    9178659  MISS:       4714
L1I LOAD      ACCESS:    9183373  HIT:    9178659  MISS:       4714
L1I RFO       ACCESS:          0  HIT:          0  MISS:          0
L1I PREFETCH  ACCESS:          0  HIT:          0  MISS:          0
L1I WRITEBACK ACCESS:          0  HIT:          0  MISS:          0
L1I PREFETCH  REQUESTED:          0  ISSUED:          0  USEFUL:          0  USELESS:          0
L1I AVERAGE MISS LATENCY: 222.687 cycles
L2C TOTAL     ACCESS:    1825208  HIT:     888291  MISS:     936917
L2C LOAD      ACCESS:    1132197  HIT:     284936  MISS:     847261
L2C RFO       ACCESS:     126845  HIT:      38820  MISS:      88025
L2C PREFETCH  ACCESS:          0  HIT:          0  MISS:          0
L2C WRITEBACK ACCESS:     566166  HIT:     564535  MISS:       1631
L2C PREFETCH  REQUESTED:          0  ISSUED:          0  USEFUL:          0  USELESS:          0
L2C AVERAGE MISS LATENCY: 205.137 cycles
LLC TOTAL     ACCESS:    1435371  HIT:      23237  MISS:    1412134
LLC LOAD      ACCESS:     847260  HIT:      13403  MISS:     833857
LLC RFO       ACCESS:      88022  HIT:       3746  MISS:      84276
LLC PREFETCH  ACCESS:          0  HIT:          0  MISS:          0
LLC WRITEBACK ACCESS:     500089  HIT:       6088  MISS:     494001
LLC PREFETCH  REQUESTED:          0  ISSUED:          0  USEFUL:          0  USELESS:          0
LLC AVERAGE MISS LATENCY: 115.369 cycles
Major fault: 0 Minor fault: 25114

DRAM Statistics
 CHANNEL 0
 RQ ROW_BUFFER_HIT:      36122  ROW_BUFFER_MISS:     881782
 DBUS_CONGESTED:     393130
 WQ ROW_BUFFER_HIT:     251370  ROW_BUFFER_MISS:     248445  FULL:          0

 AVG_CONGESTED_CYCLE: 6

CPU 0 Branch Prediction Accuracy: 94.3664% MPKI: 9.07874 Average ROB Occupancy at Mispredict: 75.5448

Branch types
NOT_BRANCH: 41941918 83.8838%
BRANCH_DIRECT_JUMP: 274391 0.548782%
BRANCH_INDIRECT: 0 0%
BRANCH_CONDITIONAL: 7726558 15.4531%
BRANCH_DIRECT_CALL: 28387 0.056774%
BRANCH_INDIRECT_CALL: 0 0%
BRANCH_RETURN: 28385 0.05677%
BRANCH_OTHER: 0 0%

