
*** ChampSim Multicore Out-of-Order Simulator ***

Warmup Instructions: 30000000
Simulation Instructions: 30000000
Number of CPUs: 1
LLC sets: 32
LLC ways: 32
Off-chip DRAM Size: 4096 MB Channels: 1 Width: 64-bit Data Rate: 3200 MT/s

CPU 0 runs ./traces/kissat-mab-hywalk-low-30K-299B.champsimtrace.xz
[90911, 42401, 14333, 22615, 24538, 21487, 18055, 9852, 5813, 4479, 1004, 511, 1]
[174823, 80331, 29583, 51280, 61132, 46661, 33012, 16962, 9458, 6421, 1691, 645, 1]
[266496, 111586, 47527, 85446, 100331, 69732, 45002, 20147, 11405, 7231, 2411, 685, 1]
[359422, 136235, 63474, 123465, 138443, 96408, 57476, 24094, 12458, 7863, 3487, 820, 355]
[455652, 156691, 77630, 162657, 178086, 122525, 68917, 28282, 13894, 8645, 5026, 946, 1049]
Heartbeat CPU 0 instructions: 10000001 cycles: 3624609 heartbeat IPC: 2.75892 cumulative IPC: 2.75892 (Simulation time: 0 hr 1 min 52 sec) 
[554295, 177598, 91535, 198637, 213005, 147710, 83792, 32442, 16585, 9774, 7468, 1235, 1924]
[651450, 198288, 106646, 235945, 247359, 172712, 99210, 37409, 18693, 11354, 8117, 1695, 3122]
[744697, 216571, 120476, 272774, 285510, 200742, 115959, 42608, 20997, 12937, 8714, 1932, 4083]
[829767, 229516, 130938, 316992, 318207, 223523, 138059, 49293, 28854, 18714, 12540, 3300, 4297]
[912493, 243309, 142164, 363470, 354259, 249751, 158107, 58384, 34861, 22035, 13442, 3427, 4298]
[992817, 255225, 154467, 411928, 387795, 271892, 174716, 69419, 43376, 28560, 16443, 4904, 4458]
Heartbeat CPU 0 instructions: 20000001 cycles: 7151135 heartbeat IPC: 2.83565 cumulative IPC: 2.79676 (Simulation time: 0 hr 3 min 32 sec) 
[1075191, 266836, 166944, 457672, 420164, 296451, 194028, 80072, 50973, 33474, 18780, 6689, 4726]
[1152456, 279393, 180733, 507344, 452860, 320848, 214610, 92498, 57581, 37330, 20730, 6890, 4727]
[1230508, 291776, 193810, 556573, 483082, 342801, 235343, 104395, 66969, 42709, 23477, 7824, 4733]
[1311920, 303565, 206787, 604035, 513386, 365162, 254184, 116513, 75683, 48125, 26623, 9166, 4851]
[1395078, 316489, 218707, 650690, 545401, 387921, 275925, 126713, 83190, 52559, 28120, 10136, 5071]
[1474309, 329803, 230595, 699075, 576539, 411666, 295691, 137654, 93733, 57690, 29401, 10630, 5214]
Heartbeat CPU 0 instructions: 30000002 cycles: 10509154 heartbeat IPC: 2.97795 cumulative IPC: 2.85465 (Simulation time: 0 hr 5 min 6 sec) 

Warmup complete CPU 0 instructions: 30000002 cycles: 10509154 (Simulation time: 0 hr 5 min 6 sec) 

[1554747, 342176, 242015, 748483, 604910, 432727, 315464, 149051, 103611, 64174, 32757, 12318, 5567]
[1634004, 354883, 254938, 796939, 634083, 454742, 334388, 160857, 113042, 70758, 36299, 13206, 5861]
[1715202, 368568, 267239, 845027, 667149, 476565, 353599, 169829, 122811, 74914, 38342, 14762, 5993]
[1794618, 383073, 280014, 892786, 702191, 498912, 374598, 180613, 130397, 78109, 39533, 14976, 6180]
[1876139, 395951, 292857, 939009, 731332, 522017, 396079, 193004, 139621, 82683, 41402, 15507, 6399]
[1954712, 409779, 304745, 988135, 762654, 544560, 414739, 204716, 148744, 86830, 44639, 17016, 6731]
Heartbeat CPU 0 instructions: 40000001 cycles: 27116787 heartbeat IPC: 0.602133 cumulative IPC: 0.602133 (Simulation time: 0 hr 6 min 41 sec) 
[2034358, 423246, 318006, 1034557, 792760, 568838, 436829, 215421, 156908, 90894, 47364, 17919, 6900]
[2118371, 436480, 329398, 1082478, 822289, 591390, 457439, 225875, 165782, 95855, 48922, 18739, 6982]
[2199511, 449510, 341835, 1131023, 852993, 612222, 478741, 237591, 174955, 99771, 51017, 19827, 7004]
[2280745, 462173, 352992, 1179826, 879660, 631363, 500261, 250096, 185585, 106413, 55020, 20683, 7183]
[2360557, 473831, 366116, 1230256, 907615, 653484, 519640, 261276, 194493, 111558, 58741, 22964, 7469]
[2444006, 488905, 377667, 1277777, 942896, 678538, 538858, 269027, 199545, 114864, 60464, 23854, 7599]
Heartbeat CPU 0 instructions: 50000000 cycles: 44087458 heartbeat IPC: 0.589252 cumulative IPC: 0.595623 (Simulation time: 0 hr 8 min 17 sec) 
[2524109, 505119, 388657, 1326031, 978586, 704354, 558742, 278387, 204960, 117509, 61472, 24396, 7678]
[2605916, 519577, 399291, 1373068, 1008891, 730397, 578308, 290954, 212482, 121189, 63565, 24558, 7804]
[2687405, 534683, 410831, 1418436, 1046026, 757654, 595036, 300429, 218319, 124405, 65541, 25303, 7932]
[2775567, 550455, 422849, 1458102, 1080575, 786926, 614212, 308792, 222278, 126415, 67752, 25970, 8107]
[2861712, 566437, 435987, 1498008, 1115308, 817936, 634795, 317044, 225806, 127809, 68492, 26364, 8302]
[2944016, 580687, 448422, 1544180, 1150715, 844327, 653678, 326679, 231725, 130320, 69827, 27072, 8352]
Heartbeat CPU 0 instructions: 60000000 cycles: 63143662 heartbeat IPC: 0.524763 cumulative IPC: 0.569968 (Simulation time: 0 hr 9 min 45 sec) 
Finished CPU 0 instructions: 30000000 cycles: 52634523 cumulative IPC: 0.569968 (Simulation time: 0 hr 9 min 45 sec) 

ChampSim completed all CPUs

Region of Interest Statistics

CPU 0 cumulative IPC: 0.569968 instructions: 30000000 cycles: 52634523
L1D TOTAL     ACCESS:    8116886  HIT:    7704608  MISS:     412278
L1D LOAD      ACCESS:    4480816  HIT:    4108810  MISS:     372006
L1D RFO       ACCESS:    3636070  HIT:    3595798  MISS:      40272
L1D PREFETCH  ACCESS:          0  HIT:          0  MISS:          0
L1D WRITEBACK ACCESS:          0  HIT:          0  MISS:          0
L1D PREFETCH  REQUESTED:          0  ISSUED:          0  USEFUL:          0  USELESS:          0
L1D AVERAGE MISS LATENCY: 128.834 cycles
L1I TOTAL     ACCESS:    5414038  HIT:    5414038  MISS:          0
L1I LOAD      ACCESS:    5414038  HIT:    5414038  MISS:          0
L1I RFO       ACCESS:          0  HIT:          0  MISS:          0
L1I PREFETCH  ACCESS:          0  HIT:          0  MISS:          0
L1I WRITEBACK ACCESS:          0  HIT:          0  MISS:          0
L1I PREFETCH  REQUESTED:          0  ISSUED:          0  USEFUL:          0  USELESS:          0
L1I AVERAGE MISS LATENCY: -nan cycles
L2C TOTAL     ACCESS:     658044  HIT:     404734  MISS:     253310
L2C LOAD      ACCESS:     371970  HIT:     140077  MISS:     231893
L2C RFO       ACCESS:      40266  HIT:      20109  MISS:      20157
L2C PREFETCH  ACCESS:          0  HIT:          0  MISS:          0
L2C WRITEBACK ACCESS:     245808  HIT:     244548  MISS:       1260
L2C PREFETCH  REQUESTED:          0  ISSUED:          0  USEFUL:          0  USELESS:          0
L2C AVERAGE MISS LATENCY: 185.09 cycles
LLC TOTAL     ACCESS:     422927  HIT:      29902  MISS:     393025
LLC LOAD      ACCESS:     231891  HIT:      19916  MISS:     211975
LLC RFO       ACCESS:      20153  HIT:       4853  MISS:      15300
LLC PREFETCH  ACCESS:          0  HIT:          0  MISS:          0
LLC WRITEBACK ACCESS:     170883  HIT:       5133  MISS:     165750
LLC PREFETCH  REQUESTED:          0  ISSUED:          0  USEFUL:          0  USELESS:          0
LLC AVERAGE MISS LATENCY: 100.025 cycles
Major fault: 0 Minor fault: 2676

DRAM Statistics
 CHANNEL 0
 RQ ROW_BUFFER_HIT:      12629  ROW_BUFFER_MISS:     214507
 DBUS_CONGESTED:      77893
 WQ ROW_BUFFER_HIT:      80898  ROW_BUFFER_MISS:      89043  FULL:          0

 AVG_CONGESTED_CYCLE: 6

CPU 0 Branch Prediction Accuracy: 94.1905% MPKI: 8.68967 Average ROB Occupancy at Mispredict: 59.7664

Branch types
NOT_BRANCH: 25512378 85.0413%
BRANCH_DIRECT_JUMP: 700866 2.33622%
BRANCH_INDIRECT: 0 0%
BRANCH_CONDITIONAL: 3649489 12.165%
BRANCH_DIRECT_CALL: 68462 0.228207%
BRANCH_INDIRECT_CALL: 0 0%
BRANCH_RETURN: 68462 0.228207%
BRANCH_OTHER: 0 0%

