
*** ChampSim Multicore Out-of-Order Simulator ***

Warmup Instructions: 50000000
Simulation Instructions: 50000000
Number of CPUs: 1
LLC sets: 32
LLC ways: 32
Off-chip DRAM Size: 4096 MB Channels: 1 Width: 64-bit Data Rate: 3200 MT/s

CPU 0 runs ./traces/kissat-mab-hywalk-low-30K-299B.champsimtrace.xz
[114364, 16879, 15851, 23353, 27665, 19523, 16615, 9463, 6746, 3540, 1682, 318, 1]
[216014, 36296, 32779, 53145, 64814, 43064, 31330, 16743, 9634, 5333, 2392, 455, 1]
[320983, 52952, 52443, 85984, 104987, 66592, 41913, 20574, 11754, 6312, 2801, 704, 1]
[419289, 70022, 75273, 119136, 143465, 93325, 53056, 24800, 13319, 6889, 3262, 2057, 107]
[516955, 87850, 93896, 157049, 179047, 121335, 65273, 28420, 14706, 8578, 3718, 2360, 813]
Heartbeat CPU 0 instructions: 10000001 cycles: 3624446 heartbeat IPC: 2.75904 cumulative IPC: 2.75904 (Simulation time: 0 hr 0 min 41 sec) 
[615134, 104646, 117914, 189023, 211328, 148727, 79136, 33100, 16795, 10951, 3954, 3608, 1684]
[713708, 120686, 140065, 219841, 243626, 178783, 92836, 38283, 20178, 12604, 4574, 4034, 2782]
[809214, 135339, 157114, 250275, 280317, 213794, 108614, 44009, 22813, 13411, 5236, 4180, 3684]
[895274, 146657, 169533, 279847, 312041, 254193, 124940, 52685, 31738, 18383, 9247, 5447, 4015]
[978804, 157939, 184163, 324458, 348343, 281201, 143236, 62601, 37868, 21584, 10191, 5597, 4015]
[1058453, 169030, 199978, 370393, 382206, 304584, 160388, 72742, 46446, 27239, 13291, 7093, 4157]
Heartbeat CPU 0 instructions: 20000001 cycles: 7151148 heartbeat IPC: 2.83551 cumulative IPC: 2.79675 (Simulation time: 0 hr 1 min 24 sec) 
[1140142, 179724, 215450, 414854, 415161, 329897, 178917, 83715, 52547, 32608, 15664, 8906, 4415]
[1217571, 190501, 231932, 463869, 447577, 354531, 198476, 94440, 61369, 36380, 17638, 9301, 4415]
[1296489, 200553, 247263, 512394, 477231, 377925, 218605, 106652, 70505, 42241, 19813, 9887, 4442]
[1378502, 211038, 261951, 559012, 506796, 400626, 238060, 117944, 79639, 48893, 21884, 11082, 4573]
[1461763, 221914, 277815, 603686, 538129, 424886, 258735, 129059, 86413, 53078, 23511, 12098, 4913]
[1541450, 232998, 292705, 650899, 568170, 448061, 279872, 140717, 95917, 57911, 25811, 12519, 4970]
Heartbeat CPU 0 instructions: 30000002 cycles: 10509244 heartbeat IPC: 2.97788 cumulative IPC: 2.85463 (Simulation time: 0 hr 2 min 8 sec) 
[1622778, 243810, 306841, 698184, 595595, 470717, 298907, 151779, 105632, 65460, 29609, 13399, 5289]
[1702789, 255463, 321247, 745609, 623282, 493628, 318672, 164385, 113925, 73136, 32105, 14109, 5650]
[1784869, 267718, 335667, 792224, 655714, 517297, 335677, 175128, 121737, 78941, 34338, 14823, 5867]
[1866180, 279908, 350243, 839282, 690135, 541624, 355026, 185210, 128935, 82503, 35748, 15151, 6055]
[1948797, 291214, 364690, 885553, 719153, 565121, 375107, 198298, 138057, 86657, 37591, 15488, 6274]
[2028438, 302921, 379410, 933901, 750235, 586752, 393871, 210164, 146536, 91800, 39862, 17574, 6536]
Heartbeat CPU 0 instructions: 40000001 cycles: 13854248 heartbeat IPC: 2.98953 cumulative IPC: 2.8872 (Simulation time: 0 hr 2 min 52 sec) 
[2108357, 314949, 394943, 979986, 781230, 610088, 415492, 220208, 153804, 97412, 42726, 18105, 6700]
[2193159, 327066, 409128, 1025423, 811887, 632477, 435373, 230981, 162817, 101381, 44858, 18673, 6777]
[2275077, 338806, 424645, 1072437, 842541, 653548, 455108, 243111, 170257, 107772, 46524, 19388, 6786]
[2357440, 349707, 438480, 1118662, 870411, 673276, 475735, 256151, 180860, 113639, 50274, 20564, 6801]
[2437439, 360471, 452888, 1166881, 899489, 694961, 496044, 266295, 189646, 119983, 54038, 22779, 7086]
[2524044, 371995, 466428, 1212847, 934478, 720694, 514200, 274288, 195043, 123286, 55839, 23641, 7217]
Heartbeat CPU 0 instructions: 50000003 cycles: 17258494 heartbeat IPC: 2.93751 cumulative IPC: 2.89712 (Simulation time: 0 hr 3 min 36 sec) 

Warmup complete CPU 0 instructions: 50000003 cycles: 17258494 (Simulation time: 0 hr 3 min 36 sec) 

[2606824, 384260, 480500, 1259286, 968524, 748942, 533458, 284009, 200210, 125720, 56842, 24129, 7296]
[2690617, 396244, 493719, 1306547, 997228, 774900, 552972, 295581, 208520, 129611, 58102, 24539, 7420]
[2773993, 409002, 508118, 1350802, 1031771, 802046, 571004, 306256, 214404, 132877, 59028, 25150, 7549]
[2864565, 422042, 522399, 1390786, 1064761, 831553, 589343, 314533, 218767, 135219, 59947, 26387, 7698]
[2953237, 434810, 536872, 1432735, 1096524, 862311, 610948, 322288, 223199, 136397, 60302, 26678, 7699]
[3036675, 448616, 550690, 1477812, 1130170, 889124, 633153, 329113, 229150, 139387, 60890, 27428, 7792]
Heartbeat CPU 0 instructions: 60000000 cycles: 36329660 heartbeat IPC: 0.524352 cumulative IPC: 0.524352 (Simulation time: 0 hr 4 min 22 sec) 
[3118063, 461501, 565989, 1523734, 1163485, 914540, 653016, 338553, 237388, 142042, 61930, 27769, 7990]
[3200404, 473345, 582006, 1571875, 1194426, 936676, 672244, 349326, 244776, 146691, 63413, 28468, 8350]
[3280315, 485421, 596764, 1619604, 1226312, 962124, 692238, 360723, 251681, 150235, 64920, 28743, 8920]
[3360548, 496059, 611861, 1666518, 1254963, 984081, 712852, 373860, 260499, 155074, 67056, 29186, 11443]
[3443200, 507365, 627671, 1710932, 1284345, 1008753, 734149, 385038, 268137, 159278, 69020, 29682, 12430]
Heartbeat CPU 0 instructions: 70000003 cycles: 54598804 heartbeat IPC: 0.547371 cumulative IPC: 0.535614 (Simulation time: 0 hr 5 min 10 sec) 
[3524838, 519913, 643090, 1757081, 1319077, 1037464, 753309, 392915, 273905, 161950, 69848, 29924, 12686]
[3609294, 531140, 659340, 1801865, 1349598, 1062104, 773737, 402070, 282130, 165391, 71818, 30596, 12917]
[3689212, 541744, 672959, 1850101, 1376697, 1082875, 799163, 411531, 291472, 171026, 75322, 32678, 13220]
[3768167, 552666, 686048, 1899304, 1403426, 1105209, 820472, 424263, 301030, 177426, 77685, 34625, 13679]
[3851297, 564950, 718250, 1929164, 1433908, 1128655, 841143, 434695, 308237, 181143, 79639, 34993, 13926]
[3936096, 577072, 750981, 1955750, 1466473, 1154151, 862596, 443667, 313810, 184661, 81042, 35624, 14077]
Heartbeat CPU 0 instructions: 80000003 cycles: 72105157 heartbeat IPC: 0.571221 cumulative IPC: 0.546979 (Simulation time: 0 hr 5 min 57 sec) 
[4016723, 588314, 788804, 1978192, 1495351, 1177524, 885192, 454914, 322803, 189237, 84352, 35841, 14753]
[4103320, 599652, 824141, 2001200, 1524626, 1204282, 904577, 461172, 332023, 193840, 86749, 36809, 15609]
[4189245, 610908, 859353, 2023503, 1553513, 1230468, 924522, 470371, 339143, 199563, 88985, 37818, 16608]
[4272224, 620845, 896113, 2046212, 1581701, 1256016, 949694, 480890, 348268, 203385, 90140, 37903, 16609]
[4360540, 631656, 930227, 2070602, 1613379, 1281139, 972041, 489940, 354282, 205617, 91632, 38099, 16846]
[4442585, 641821, 968587, 2092560, 1642675, 1305988, 993420, 499905, 362768, 211345, 94210, 38634, 17502]
Heartbeat CPU 0 instructions: 90000003 cycles: 90691246 heartbeat IPC: 0.538037 cumulative IPC: 0.544716 (Simulation time: 0 hr 6 min 44 sec) 
[4521235, 650552, 1010504, 2112259, 1666930, 1331956, 1010498, 514064, 373270, 219365, 98223, 39911, 19233]
[4600449, 660040, 1049983, 2137345, 1693760, 1355979, 1030134, 524915, 382319, 225550, 102448, 40500, 20578]
[4679435, 669529, 1090337, 2159661, 1720615, 1380037, 1049280, 536032, 391193, 231460, 106621, 41675, 24125]
[4760849, 680115, 1126998, 2182735, 1748573, 1408900, 1070232, 547294, 397871, 235005, 110256, 42221, 24951]
[4840320, 689785, 1165799, 2204617, 1773991, 1435486, 1094431, 556929, 408526, 240089, 113293, 42874, 25860]
[4925019, 700960, 1188779, 2241086, 1807972, 1461593, 1114532, 564704, 415240, 243287, 114991, 43515, 26322]
*** Reached end of trace for Core: 0 Repeating trace: ./traces/kissat-mab-hywalk-low-30K-299B.champsimtrace.xz
Heartbeat CPU 0 instructions: 100000003 cycles: 108016217 heartbeat IPC: 0.577202 cumulative IPC: 0.550917 (Simulation time: 0 hr 7 min 31 sec) 
Finished CPU 0 instructions: 50000000 cycles: 90757723 cumulative IPC: 0.550917 (Simulation time: 0 hr 7 min 31 sec) 

ChampSim completed all CPUs

Region of Interest Statistics

CPU 0 cumulative IPC: 0.550917 instructions: 50000000 cycles: 90757723
L1D TOTAL     ACCESS:   13589082  HIT:   12917953  MISS:     671129
L1D LOAD      ACCESS:    7511377  HIT:    6902846  MISS:     608531
L1D RFO       ACCESS:    6077705  HIT:    6015107  MISS:      62598
L1D PREFETCH  ACCESS:          0  HIT:          0  MISS:          0
L1D WRITEBACK ACCESS:          0  HIT:          0  MISS:          0
L1D PREFETCH  REQUESTED:          0  ISSUED:          0  USEFUL:          0  USELESS:          0
L1D AVERAGE MISS LATENCY: 139.416 cycles
L1I TOTAL     ACCESS:    9050242  HIT:    9050242  MISS:          0
L1I LOAD      ACCESS:    9050242  HIT:    9050242  MISS:          0
L1I RFO       ACCESS:          0  HIT:          0  MISS:          0
L1I PREFETCH  ACCESS:          0  HIT:          0  MISS:          0
L1I WRITEBACK ACCESS:          0  HIT:          0  MISS:          0
L1I PREFETCH  REQUESTED:          0  ISSUED:          0  USEFUL:          0  USELESS:          0
L1I AVERAGE MISS LATENCY: -nan cycles
L2C TOTAL     ACCESS:    1064019  HIT:     623043  MISS:     440976
L2C LOAD      ACCESS:     608465  HIT:     206181  MISS:     402284
L2C RFO       ACCESS:      62587  HIT:      26225  MISS:      36362
L2C PREFETCH  ACCESS:          0  HIT:          0  MISS:          0
L2C WRITEBACK ACCESS:     392967  HIT:     390637  MISS:       2330
L2C PREFETCH  REQUESTED:          0  ISSUED:          0  USEFUL:          0  USELESS:          0
L2C AVERAGE MISS LATENCY: 189.159 cycles
LLC TOTAL     ACCESS:     733308  HIT:      39302  MISS:     694006
LLC LOAD      ACCESS:     402281  HIT:      27535  MISS:     374746
LLC RFO       ACCESS:      36361  HIT:       6451  MISS:      29910
LLC PREFETCH  ACCESS:          0  HIT:          0  MISS:          0
LLC WRITEBACK ACCESS:     294666  HIT:       5316  MISS:     289350
LLC PREFETCH  REQUESTED:          0  ISSUED:          0  USEFUL:          0  USELESS:          0
LLC AVERAGE MISS LATENCY: 101.194 cycles
Major fault: 0 Minor fault: 2783

DRAM Statistics
 CHANNEL 0
 RQ ROW_BUFFER_HIT:      24796  ROW_BUFFER_MISS:     379602
 DBUS_CONGESTED:     138500
 WQ ROW_BUFFER_HIT:     142932  ROW_BUFFER_MISS:     151093  FULL:          0

 AVG_CONGESTED_CYCLE: 6

CPU 0 Branch Prediction Accuracy: 94.2608% MPKI: 8.53876 Average ROB Occupancy at Mispredict: 61.0284

Branch types
NOT_BRANCH: 42560625 85.1213%
BRANCH_DIRECT_JUMP: 1166598 2.3332%
BRANCH_INDIRECT: 0 0%
BRANCH_CONDITIONAL: 6036902 12.0738%
BRANCH_DIRECT_CALL: 117768 0.235536%
BRANCH_INDIRECT_CALL: 0 0%
BRANCH_RETURN: 117767 0.235534%
BRANCH_OTHER: 0 0%

